
This summary information was generated by ElastoDyn on 28-Oct-2022 at 15:45:19.


Turbine features:

            Upwind, 3-bladed rotor with rigid hub.
            The model has 20 of 24 DOFs active (enabled) at start-up.
 Enabled    Platform horizontal surge translation DOF 
 Enabled    Platform horizontal sway translation DOF 
 Enabled    Platform vertical heave translation DOF 
 Enabled    Platform roll tilt rotation DOF 
 Enabled    Platform pitch tilt rotation DOF 
 Enabled    Platform yaw rotation DOF 
 Enabled    1st tower fore-aft bending mode DOF 
 Enabled    1st tower side-to-side bending mode DOF 
 Enabled    2nd tower fore-aft bending mode DOF 
 Enabled    2nd tower side-to-side bending mode DOF 
 Disabled   Nacelle yaw DOF 
 Disabled   Rotor-furl DOF 
 Enabled    Variable speed generator DOF 
 Disabled   Drivetrain rotational-flexibility DOF 
 Disabled   Tail-furl DOF 
 Enabled    1st flapwise bending-mode DOF of blade 1 
 Enabled    1st edgewise bending-mode DOF of blade 1 
 Enabled    2nd flapwise bending-mode DOF of blade 1 
 Enabled    1st flapwise bending-mode DOF of blade 2 
 Enabled    1st edgewise bending-mode DOF of blade 2 
 Enabled    2nd flapwise bending-mode DOF of blade 2 
 Enabled    1st flapwise bending-mode DOF of blade 3 
 Enabled    1st edgewise bending-mode DOF of blade 3 
 Enabled    2nd flapwise bending-mode DOF of blade 3 


Time steps:

    Structural            (s)        0.00500000


Some calculated parameters:

    Hub-Height            (m)           150.000
    Flexible Tower Length (m)           129.386
    Flexible Blade Length (m)           117.000


Rotor mass properties:

    Rotor Mass            (kg)       274882.812
    Rotor Inertia         (kg-m^2)350803520.000
                                        Blade 1      Blade 2      Blade 3
                                        -------      -------      -------
    Mass                  (kg)        68507.609    68507.609    68507.609
    Second Mass Moment    (kg-m^2)101086760.000101086760.000101086760.000
    First Mass Moment     (kg-m)    1890892.375  1890892.375  1890892.375
    Center of Mass        (m)            27.601       27.601       27.601


Additional mass properties:

    Tower-top Mass        (kg)       950057.812
    Tower Mass            (kg)       870503.500
    Platform Mass         (kg)            0.000
    Mass Incl. Platform   (kg)      1820561.250


Interpolated tower properties:

Node  TwFract   HNodes  DHNodes  TMassDen    FAStiff    SSStiff
 (-)      (-)      (m)      (m)    (kg/m)     (Nm^2)     (Nm^2)
   1    0.025    3.235    6.469 10421.734  3.097E+12  3.097E+12
   2    0.075    9.704    6.469 10148.178  3.016E+12  3.016E+12
   3    0.125   16.173    6.469  9760.333  2.894E+12  2.894E+12
   4    0.175   22.643    6.469  9367.709  2.759E+12  2.759E+12
   5    0.225   29.112    6.469  8959.239  2.594E+12  2.594E+12
   6    0.275   35.581    6.469  8460.709  2.337E+12  2.337E+12
   7    0.325   42.050    6.469  8066.199  2.119E+12  2.119E+12
   8    0.375   48.520    6.469  7639.975  1.885E+12  1.885E+12
   9    0.425   54.989    6.469  7233.398  1.672E+12  1.672E+12
  10    0.475   61.458    6.469  6811.515  1.461E+12  1.461E+12
  11    0.525   67.928    6.469  6389.813  1.268E+12  1.268E+12
  12    0.575   74.397    6.469  5953.921  1.081E+12  1.081E+12
  13    0.625   80.866    6.469  5507.926  9.099E+11  9.099E+11
  14    0.675   87.336    6.469  5154.936  7.950E+11  7.950E+11
  15    0.725   93.805    6.469  4741.434  6.862E+11  6.862E+11
  16    0.775  100.274    6.469  4389.063  6.134E+11  6.134E+11
  17    0.825  106.743    6.469  4073.395  5.569E+11  5.569E+11
  18    0.875  113.213    6.469  3761.822  5.024E+11  5.024E+11
  19    0.925  119.682    6.469  3744.053  4.871E+11  4.871E+11
  20    0.975  126.151    6.469  3973.803  5.076E+11  5.076E+11


Interpolated blade 1 properties:

Node  BlFract   RNodes  DRNodes PitchAxis  StrcTwst  BMassDen    FlpStff    EdgStff
 (-)      (-)      (m)      (m)       (-)     (deg)    (kg/m)     (Nm^2)     (Nm^2)
   1    0.010    5.140    2.340     0.497    15.591  3022.225  1.458E+11  1.452E+11
   2    0.030    7.480    2.340     0.482    15.505  2687.669  1.310E+11  1.308E+11
   3    0.050    9.820    2.340     0.464    15.203  2335.322  1.110E+11  1.141E+11
   4    0.070   12.160    2.340     0.446    14.652  1974.944  8.755E+10  9.490E+10
   5    0.090   14.500    2.340     0.427    13.905  1733.741  6.734E+10  8.040E+10
   6    0.110   16.840    2.340     0.409    13.017  1558.399  5.149E+10  7.066E+10
   7    0.130   19.180    2.340     0.392    12.042  1283.429  4.020E+10  6.091E+10
   8    0.150   21.520    2.340     0.376    11.036  1053.314  3.343E+10  5.330E+10
   9    0.170   23.860    2.340     0.361    10.052   864.364  2.974E+10  4.646E+10
  10    0.190   26.200    2.340     0.348     9.140   724.542  2.674E+10  4.090E+10
  11    0.210   28.540    2.340     0.337     8.343   630.054  2.368E+10  3.687E+10
  12    0.230   30.880    2.340     0.329     7.660   570.091  2.066E+10  3.396E+10
  13    0.250   33.220    2.340     0.323     7.031   531.455  1.810E+10  3.175E+10
  14    0.270   35.560    2.340     0.318     6.410   505.570  1.596E+10  2.994E+10
  15    0.290   37.900    2.340     0.314     5.811   491.523  1.464E+10  2.836E+10
  16    0.310   40.240    2.340     0.311     5.242   485.915  1.395E+10  2.689E+10
  17    0.330   42.580    2.340     0.308     4.711   481.202  1.319E+10  2.536E+10
  18    0.350   44.920    2.340     0.306     4.229   474.925  1.190E+10  2.385E+10
  19    0.370   47.260    2.340     0.304     3.795   466.665  1.043E+10  2.247E+10
  20    0.390   49.600    2.340     0.302     3.405   458.218  9.346E+09  2.129E+10
  21    0.410   51.940    2.340     0.299     3.046   450.061  8.626E+09  2.021E+10
  22    0.430   54.280    2.340     0.296     2.711   441.528  8.045E+09  1.919E+10
  23    0.450   56.620    2.340     0.294     2.397   432.070  7.386E+09  1.815E+10
  24    0.470   58.960    2.340     0.292     2.103   421.656  6.506E+09  1.714E+10
  25    0.490   61.300    2.340     0.290     1.826   411.153  5.628E+09  1.616E+10
  26    0.510   63.640    2.340     0.289     1.561   401.347  4.932E+09  1.523E+10
  27    0.530   65.980    2.340     0.288     1.310   392.323  4.418E+09  1.436E+10
  28    0.550   68.320    2.340     0.288     1.076   383.137  3.964E+09  1.349E+10
  29    0.570   70.660    2.340     0.288     0.859   362.764  3.462E+09  1.153E+10
  30    0.590   73.000    2.340     0.288     0.655   341.792  3.008E+09  9.644E+09
  31    0.610   75.340    2.340     0.289     0.459   319.805  2.639E+09  7.804E+09
  32    0.630   77.680    2.340     0.291     0.265   297.132  2.339E+09  6.039E+09
  33    0.650   80.020    2.340     0.293     0.070   275.260  2.067E+09  4.514E+09
  34    0.670   82.360    2.340     0.295    -0.137   258.970  1.797E+09  3.666E+09
  35    0.690   84.700    2.340     0.297    -0.363   242.595  1.532E+09  2.988E+09
  36    0.710   87.040    2.340     0.300    -0.623   225.773  1.279E+09  2.505E+09
  37    0.730   89.380    2.340     0.303    -0.926   206.742  1.045E+09  2.140E+09
  38    0.750   91.720    2.340     0.306    -1.240   185.951  8.453E+08  1.798E+09
  39    0.770   94.060    2.340     0.309    -1.542   163.842  6.808E+08  1.443E+09
  40    0.790   96.400    2.340     0.312    -1.809   141.916  5.411E+08  1.110E+09
  41    0.810   98.740    2.340     0.315    -2.024   119.337  4.203E+08  8.537E+08
  42    0.830  101.080    2.340     0.319    -2.138   100.160  3.224E+08  6.772E+08
  43    0.850  103.420    2.340     0.323    -2.172    83.707  2.475E+08  5.345E+08
  44    0.870  105.760    2.340     0.328    -2.163    69.391  1.870E+08  4.160E+08
  45    0.890  108.100    2.340     0.333    -2.123    57.688  1.365E+08  3.244E+08
  46    0.910  110.440    2.340     0.338    -2.053    48.168  9.503E+07  2.518E+08
  47    0.930  112.780    2.340     0.344    -1.949    40.054  6.210E+07  1.893E+08
  48    0.950  115.120    2.340     0.350    -1.802    31.294  3.724E+07  1.320E+08
  49    0.970  117.460    2.340     0.357    -1.610    24.064  1.977E+07  8.562E+07
  50    0.990  119.800    2.340     0.364    -1.373    13.512  6.449E+06  3.376E+07


Interpolated blade 2 properties:

Node  BlFract   RNodes  DRNodes PitchAxis  StrcTwst  BMassDen    FlpStff    EdgStff
 (-)      (-)      (m)      (m)       (-)     (deg)    (kg/m)     (Nm^2)     (Nm^2)
   1    0.010    5.140    2.340     0.497    15.591  3022.225  1.458E+11  1.452E+11
   2    0.030    7.480    2.340     0.482    15.505  2687.669  1.310E+11  1.308E+11
   3    0.050    9.820    2.340     0.464    15.203  2335.322  1.110E+11  1.141E+11
   4    0.070   12.160    2.340     0.446    14.652  1974.944  8.755E+10  9.490E+10
   5    0.090   14.500    2.340     0.427    13.905  1733.741  6.734E+10  8.040E+10
   6    0.110   16.840    2.340     0.409    13.017  1558.399  5.149E+10  7.066E+10
   7    0.130   19.180    2.340     0.392    12.042  1283.429  4.020E+10  6.091E+10
   8    0.150   21.520    2.340     0.376    11.036  1053.314  3.343E+10  5.330E+10
   9    0.170   23.860    2.340     0.361    10.052   864.364  2.974E+10  4.646E+10
  10    0.190   26.200    2.340     0.348     9.140   724.542  2.674E+10  4.090E+10
  11    0.210   28.540    2.340     0.337     8.343   630.054  2.368E+10  3.687E+10
  12    0.230   30.880    2.340     0.329     7.660   570.091  2.066E+10  3.396E+10
  13    0.250   33.220    2.340     0.323     7.031   531.455  1.810E+10  3.175E+10
  14    0.270   35.560    2.340     0.318     6.410   505.570  1.596E+10  2.994E+10
  15    0.290   37.900    2.340     0.314     5.811   491.523  1.464E+10  2.836E+10
  16    0.310   40.240    2.340     0.311     5.242   485.915  1.395E+10  2.689E+10
  17    0.330   42.580    2.340     0.308     4.711   481.202  1.319E+10  2.536E+10
  18    0.350   44.920    2.340     0.306     4.229   474.925  1.190E+10  2.385E+10
  19    0.370   47.260    2.340     0.304     3.795   466.665  1.043E+10  2.247E+10
  20    0.390   49.600    2.340     0.302     3.405   458.218  9.346E+09  2.129E+10
  21    0.410   51.940    2.340     0.299     3.046   450.061  8.626E+09  2.021E+10
  22    0.430   54.280    2.340     0.296     2.711   441.528  8.045E+09  1.919E+10
  23    0.450   56.620    2.340     0.294     2.397   432.070  7.386E+09  1.815E+10
  24    0.470   58.960    2.340     0.292     2.103   421.656  6.506E+09  1.714E+10
  25    0.490   61.300    2.340     0.290     1.826   411.153  5.628E+09  1.616E+10
  26    0.510   63.640    2.340     0.289     1.561   401.347  4.932E+09  1.523E+10
  27    0.530   65.980    2.340     0.288     1.310   392.323  4.418E+09  1.436E+10
  28    0.550   68.320    2.340     0.288     1.076   383.137  3.964E+09  1.349E+10
  29    0.570   70.660    2.340     0.288     0.859   362.764  3.462E+09  1.153E+10
  30    0.590   73.000    2.340     0.288     0.655   341.792  3.008E+09  9.644E+09
  31    0.610   75.340    2.340     0.289     0.459   319.805  2.639E+09  7.804E+09
  32    0.630   77.680    2.340     0.291     0.265   297.132  2.339E+09  6.039E+09
  33    0.650   80.020    2.340     0.293     0.070   275.260  2.067E+09  4.514E+09
  34    0.670   82.360    2.340     0.295    -0.137   258.970  1.797E+09  3.666E+09
  35    0.690   84.700    2.340     0.297    -0.363   242.595  1.532E+09  2.988E+09
  36    0.710   87.040    2.340     0.300    -0.623   225.773  1.279E+09  2.505E+09
  37    0.730   89.380    2.340     0.303    -0.926   206.742  1.045E+09  2.140E+09
  38    0.750   91.720    2.340     0.306    -1.240   185.951  8.453E+08  1.798E+09
  39    0.770   94.060    2.340     0.309    -1.542   163.842  6.808E+08  1.443E+09
  40    0.790   96.400    2.340     0.312    -1.809   141.916  5.411E+08  1.110E+09
  41    0.810   98.740    2.340     0.315    -2.024   119.337  4.203E+08  8.537E+08
  42    0.830  101.080    2.340     0.319    -2.138   100.160  3.224E+08  6.772E+08
  43    0.850  103.420    2.340     0.323    -2.172    83.707  2.475E+08  5.345E+08
  44    0.870  105.760    2.340     0.328    -2.163    69.391  1.870E+08  4.160E+08
  45    0.890  108.100    2.340     0.333    -2.123    57.688  1.365E+08  3.244E+08
  46    0.910  110.440    2.340     0.338    -2.053    48.168  9.503E+07  2.518E+08
  47    0.930  112.780    2.340     0.344    -1.949    40.054  6.210E+07  1.893E+08
  48    0.950  115.120    2.340     0.350    -1.802    31.294  3.724E+07  1.320E+08
  49    0.970  117.460    2.340     0.357    -1.610    24.064  1.977E+07  8.562E+07
  50    0.990  119.800    2.340     0.364    -1.373    13.512  6.449E+06  3.376E+07


Interpolated blade 3 properties:

Node  BlFract   RNodes  DRNodes PitchAxis  StrcTwst  BMassDen    FlpStff    EdgStff
 (-)      (-)      (m)      (m)       (-)     (deg)    (kg/m)     (Nm^2)     (Nm^2)
   1    0.010    5.140    2.340     0.497    15.591  3022.225  1.458E+11  1.452E+11
   2    0.030    7.480    2.340     0.482    15.505  2687.669  1.310E+11  1.308E+11
   3    0.050    9.820    2.340     0.464    15.203  2335.322  1.110E+11  1.141E+11
   4    0.070   12.160    2.340     0.446    14.652  1974.944  8.755E+10  9.490E+10
   5    0.090   14.500    2.340     0.427    13.905  1733.741  6.734E+10  8.040E+10
   6    0.110   16.840    2.340     0.409    13.017  1558.399  5.149E+10  7.066E+10
   7    0.130   19.180    2.340     0.392    12.042  1283.429  4.020E+10  6.091E+10
   8    0.150   21.520    2.340     0.376    11.036  1053.314  3.343E+10  5.330E+10
   9    0.170   23.860    2.340     0.361    10.052   864.364  2.974E+10  4.646E+10
  10    0.190   26.200    2.340     0.348     9.140   724.542  2.674E+10  4.090E+10
  11    0.210   28.540    2.340     0.337     8.343   630.054  2.368E+10  3.687E+10
  12    0.230   30.880    2.340     0.329     7.660   570.091  2.066E+10  3.396E+10
  13    0.250   33.220    2.340     0.323     7.031   531.455  1.810E+10  3.175E+10
  14    0.270   35.560    2.340     0.318     6.410   505.570  1.596E+10  2.994E+10
  15    0.290   37.900    2.340     0.314     5.811   491.523  1.464E+10  2.836E+10
  16    0.310   40.240    2.340     0.311     5.242   485.915  1.395E+10  2.689E+10
  17    0.330   42.580    2.340     0.308     4.711   481.202  1.319E+10  2.536E+10
  18    0.350   44.920    2.340     0.306     4.229   474.925  1.190E+10  2.385E+10
  19    0.370   47.260    2.340     0.304     3.795   466.665  1.043E+10  2.247E+10
  20    0.390   49.600    2.340     0.302     3.405   458.218  9.346E+09  2.129E+10
  21    0.410   51.940    2.340     0.299     3.046   450.061  8.626E+09  2.021E+10
  22    0.430   54.280    2.340     0.296     2.711   441.528  8.045E+09  1.919E+10
  23    0.450   56.620    2.340     0.294     2.397   432.070  7.386E+09  1.815E+10
  24    0.470   58.960    2.340     0.292     2.103   421.656  6.506E+09  1.714E+10
  25    0.490   61.300    2.340     0.290     1.826   411.153  5.628E+09  1.616E+10
  26    0.510   63.640    2.340     0.289     1.561   401.347  4.932E+09  1.523E+10
  27    0.530   65.980    2.340     0.288     1.310   392.323  4.418E+09  1.436E+10
  28    0.550   68.320    2.340     0.288     1.076   383.137  3.964E+09  1.349E+10
  29    0.570   70.660    2.340     0.288     0.859   362.764  3.462E+09  1.153E+10
  30    0.590   73.000    2.340     0.288     0.655   341.792  3.008E+09  9.644E+09
  31    0.610   75.340    2.340     0.289     0.459   319.805  2.639E+09  7.804E+09
  32    0.630   77.680    2.340     0.291     0.265   297.132  2.339E+09  6.039E+09
  33    0.650   80.020    2.340     0.293     0.070   275.260  2.067E+09  4.514E+09
  34    0.670   82.360    2.340     0.295    -0.137   258.970  1.797E+09  3.666E+09
  35    0.690   84.700    2.340     0.297    -0.363   242.595  1.532E+09  2.988E+09
  36    0.710   87.040    2.340     0.300    -0.623   225.773  1.279E+09  2.505E+09
  37    0.730   89.380    2.340     0.303    -0.926   206.742  1.045E+09  2.140E+09
  38    0.750   91.720    2.340     0.306    -1.240   185.951  8.453E+08  1.798E+09
  39    0.770   94.060    2.340     0.309    -1.542   163.842  6.808E+08  1.443E+09
  40    0.790   96.400    2.340     0.312    -1.809   141.916  5.411E+08  1.110E+09
  41    0.810   98.740    2.340     0.315    -2.024   119.337  4.203E+08  8.537E+08
  42    0.830  101.080    2.340     0.319    -2.138   100.160  3.224E+08  6.772E+08
  43    0.850  103.420    2.340     0.323    -2.172    83.707  2.475E+08  5.345E+08
  44    0.870  105.760    2.340     0.328    -2.163    69.391  1.870E+08  4.160E+08
  45    0.890  108.100    2.340     0.333    -2.123    57.688  1.365E+08  3.244E+08
  46    0.910  110.440    2.340     0.338    -2.053    48.168  9.503E+07  2.518E+08
  47    0.930  112.780    2.340     0.344    -1.949    40.054  6.210E+07  1.893E+08
  48    0.950  115.120    2.340     0.350    -1.802    31.294  3.724E+07  1.320E+08
  49    0.970  117.460    2.340     0.357    -1.610    24.064  1.977E+07  8.562E+07
  50    0.990  119.800    2.340     0.364    -1.373    13.512  6.449E+06  3.376E+07


Requested Outputs:


 Col   Parameter            Units               
 ---   ---------------      ---------------     
   0   Time                 (s)                 
   1   Azimuth              (deg)               
   2   BldPitch1            (deg)               
   3   BldPitch2            (deg)               
   4   BldPitch3            (deg)               
   5   GenSpeed             (rpm)               
   6   IPDefl1              (m)                 
   7   LSSGagMya            (kN-m)              
   8   LSSGagMza            (kN-m)              
   9   LSSTipMys            (kN-m)              
  10   LSSTipMzs            (kN-m)              
  11   LSShftFys            (kN)                
  12   LSShftFzs            (kN)                
  13   NacYaw               (deg)               
  14   NcIMUTAxs            (m/s^2)             
  15   NcIMUTAys            (m/s^2)             
  16   NcIMUTAzs            (m/s^2)             
  17   OoPDefl1             (m)                 
  18   PtfmHeave            (m)                 
  19   PtfmPitch            (deg)               
  20   PtfmRoll             (deg)               
  21   PtfmSurge            (m)                 
  22   PtfmSway             (m)                 
  23   PtfmYaw              (deg)               
  24   RootFxb1             (kN)                
  25   RootFxb2             (kN)                
  26   RootFxb3             (kN)                
  27   RootFxc1             (kN)                
  28   RootFxc2             (kN)                
  29   RootFxc3             (kN)                
  30   RootFyb1             (kN)                
  31   RootFyb2             (kN)                
  32   RootFyb3             (kN)                
  33   RootFyc1             (kN)                
  34   RootFyc2             (kN)                
  35   RootFyc3             (kN)                
  36   RootFzb1             (kN)                
  37   RootFzb2             (kN)                
  38   RootFzb3             (kN)                
  39   RootFzc1             (kN)                
  40   RootFzc2             (kN)                
  41   RootFzc3             (kN)                
  42   RootMxb1             (kN-m)              
  43   RootMxb2             (kN-m)              
  44   RootMxb3             (kN-m)              
  45   RootMxc1             (kN-m)              
  46   RootMxc2             (kN-m)              
  47   RootMxc3             (kN-m)              
  48   RootMyb1             (kN-m)              
  49   RootMyb2             (kN-m)              
  50   RootMyb3             (kN-m)              
  51   RootMyc1             (kN-m)              
  52   RootMyc2             (kN-m)              
  53   RootMyc3             (kN-m)              
  54   RootMzb1             (kN-m)              
  55   RootMzb2             (kN-m)              
  56   RootMzb3             (kN-m)              
  57   RootMzc1             (kN-m)              
  58   RootMzc2             (kN-m)              
  59   RootMzc3             (kN-m)              
  60   RotSpeed             (rpm)               
  61   RotThrust            (kN)                
  62   RotTorq              (kN-m)              
  63   Spn1MLxb1            (kN-m)              
  64   Spn1MLyb1            (kN-m)              
  65   Spn2MLxb1            (kN-m)              
  66   Spn2MLyb1            (kN-m)              
  67   Spn3MLxb1            (kN-m)              
  68   Spn3MLyb1            (kN-m)              
  69   Spn4MLxb1            INVALID             
  70   Spn4MLyb1            INVALID             
  71   Spn5MLxb1            INVALID             
  72   Spn5MLyb1            INVALID             
  73   Spn6MLxb1            INVALID             
  74   Spn6MLyb1            INVALID             
  75   Spn7MLxb1            INVALID             
  76   Spn7MLyb1            INVALID             
  77   Spn8MLxb1            INVALID             
  78   Spn8MLyb1            INVALID             
  79   Spn9MLxb1            INVALID             
  80   Spn9MLyb1            INVALID             
  81   TTDspTwst            (deg)               
  82   TipDxb1              (m)                 
  83   TipDxb2              (m)                 
  84   TipDxb3              (m)                 
  85   TipDxc1              (m)                 
  86   TipDxc2              (m)                 
  87   TipDxc3              (m)                 
  88   TipDyb1              (m)                 
  89   TipDyb2              (m)                 
  90   TipDyb3              (m)                 
  91   TipDyc1              (m)                 
  92   TipDyc2              (m)                 
  93   TipDyc3              (m)                 
  94   TipDzb1              (m)                 
  95   TipDzb2              (m)                 
  96   TipDzb3              (m)                 
  97   TipDzc1              (m)                 
  98   TipDzc2              (m)                 
  99   TipDzc3              (m)                 
 100   TwHt1TPxi            (m)                 
 101   TwHt1TPyi            (m)                 
 102   TwrBsFxt             (kN)                
 103   TwrBsFyt             (kN)                
 104   TwrBsFzt             (kN)                
 105   TwrBsMxt             (kN-m)              
 106   TwrBsMyt             (kN-m)              
 107   TwrBsMzt             (kN-m)              
 108   TwstDefl1            (deg)               
 109   YawBrFxp             (kN)                
 110   YawBrFyp             (kN)                
 111   YawBrFzp             (kN)                
 112   YawBrMxp             (kN-m)              
 113   YawBrMyp             (kN-m)              
 114   YawBrMzp             (kN-m)              
 115   YawBrTDxt            (m)                 
 116   YawBrTDyt            (m)                 


  Requested Output Channels at each blade station:
 Col   Parameter            Units               
 ---   ---------------      ---------------     
   1   TDx                  (m)                 
   2   TDy                  (m)                 
   3   RDz                  (deg)               
