
This summary file was generated by HydroDyn  on 13-Apr-2023 at 21:21:52.

WAMIT Model - Body    1
------------------
  Displaced volume (m^3)                 :     1.391700E+04
  X-offset of the center of buoyancy (m) :     0.000000E+00
  Y-offset of the center of buoyancy (m) :     0.000000E+00


  Buoyancy loads from members modelled with WAMIT, summed about ( 0.0, 0.0, 0.0 )
                                BuoyFxi               BuoyFyi               BuoyFzi               BuoyMxi               BuoyMyi               BuoyMzi 
                                  (N)                   (N)                   (N)                  (N-m)                 (N-m)                 (N-m)  
  External:                 0.000000E+00          0.000000E+00          1.398911E+08          0.000000E+00          0.000000E+00          0.000000E+00



Strip-Theory Volume Calculations(m^3)
-------------------------------------
  Structure Volume     :    0.00000E+00
  Submerged Volume     :    0.00000E+00
  Marine Growth Volume :    0.00000E+00
  Ballasted Volume     :    9.38912E+03
              NOTE: Structure, Submerged and Marine Growth volumes are based on members not modelled with WAMIT
                      Ballasted volume is computed from all members which are marked as filled in the HydroDyn input file, regardless of PropPot flag



Total Buoyancy loads summed about ( 0.0, 0.0, 0.0 )
---------------------------------------------------
                                BuoyFxi               BuoyFyi               BuoyFzi               BuoyMxi               BuoyMyi               BuoyMzi 
                                  (N)                   (N)                   (N)                  (N-m)                 (N-m)                 (N-m)  
 External:                  0.000000E+00          0.000000E+00          0.000000E+00          0.000000E+00          0.000000E+00          0.000000E+00
 Internal:                 -9.454185E+00          0.000000E+00         -9.437774E+07          0.000000E+00          6.987042E+02         -1.818989E-05
 Total   :                 -9.454185E+00          0.000000E+00         -9.437774E+07          0.000000E+00          6.987042E+02         -1.818989E-05
              NOTE: External buoyancy is based on members not modelled with WAMIT
                      Internal buoyancy is computed from all members which are marked as filled in the HydroDyn input file, regardless of PropPot flag
                    Total buoyancy does not include WAMIT-modelled buoyancy contribution



Weight loads about ( 0.0, 0.0, 0.0 )
------------------------------------
                                 MGFxi                 MGFyi                 MGFzi                 MGMxi                 MGMyi                 MGMzi  
                                  (N)                   (N)                   (N)                  (N-m)                 (N-m)                 (N-m)  
 Marine Growth:             0.000000E+00          0.000000E+00          0.000000E+00          0.000000E+00          0.000000E+00          0.000000E+00



Nodes (first [  44 ] are joints, remainder are internal nodes)


   i      MbrIndx      Nxi         Nyi         Nzi           R          t          tMG        MGDens     PropPot    FilledFlag  FilledMass      Cd          Ca          Cp         AxCd        AxCa        AxCp        JAxCd       JAxCa       JAxCp  
  (-)       (-)        (m)         (m)         (m)          (m)        (m)         (m)       (kg/m^3)      (-)         (-)        (kg)          (-)         (-)         (-)         (-)         (-)         (-)         (-)         (-)         (-)   
     1      -           0.0000      0.0000    -20.0000      -           -        0.000E+00   0.000E+00      -           -           -           -           -           -           -           -           -        0.000E+00   0.000E+00   1.000E+00
     2      -           0.0000      0.0000     10.0000      -           -        0.000E+00   0.000E+00      -           -           -           -           -           -           -           -           -        0.000E+00   0.000E+00   1.000E+00
     3      -          14.4338     25.0000    -14.0000      -           -        0.000E+00   0.000E+00      -           -           -           -           -           -           -           -           -        0.000E+00   0.000E+00   1.000E+00
     4      -          14.4338     25.0000     12.0000      -           -        0.000E+00   0.000E+00      -           -           -           -           -           -           -           -           -        0.000E+00   0.000E+00   1.000E+00
     5      -         -28.8675      0.0000    -14.0000      -           -        0.000E+00   0.000E+00      -           -           -           -           -           -           -           -           -        0.000E+00   0.000E+00   1.000E+00
     6      -         -28.8675      0.0000     12.0000      -           -        0.000E+00   0.000E+00      -           -           -           -           -           -           -           -           -        0.000E+00   0.000E+00   1.000E+00
     7      -          14.4338    -25.0000    -14.0000      -           -        0.000E+00   0.000E+00      -           -           -           -           -           -           -           -           -        0.000E+00   0.000E+00   1.000E+00
     8      -          14.4338    -25.0000     12.0000      -           -        0.000E+00   0.000E+00      -           -           -           -           -           -           -           -           -        0.000E+00   0.000E+00   1.000E+00
     9      -          14.4338     25.0000    -20.0000      -           -        0.000E+00   0.000E+00      -           -           -           -           -           -           -           -           -        9.600E+00   0.000E+00   1.000E+00
    10      -         -28.8675      0.0000    -20.0000      -           -        0.000E+00   0.000E+00      -           -           -           -           -           -           -           -           -        9.600E+00   0.000E+00   1.000E+00
    11      -          14.4338    -25.0000    -20.0000      -           -        0.000E+00   0.000E+00      -           -           -           -           -           -           -           -           -        9.600E+00   0.000E+00   1.000E+00
    12      -           9.2376     22.0000     10.0000      -           -        0.000E+00   0.000E+00      -           -           -           -           -           -           -           -           -        0.000E+00   0.000E+00   1.000E+00
    13      -         -23.6713      3.0000     10.0000      -           -        0.000E+00   0.000E+00      -           -           -           -           -           -           -           -           -        0.000E+00   0.000E+00   1.000E+00
    14      -         -23.6713     -3.0000     10.0000      -           -        0.000E+00   0.000E+00      -           -           -           -           -           -           -           -           -        0.000E+00   0.000E+00   1.000E+00
    15      -           9.2376    -22.0000     10.0000      -           -        0.000E+00   0.000E+00      -           -           -           -           -           -           -           -           -        0.000E+00   0.000E+00   1.000E+00
    16      -          14.4338    -19.0000     10.0000      -           -        0.000E+00   0.000E+00      -           -           -           -           -           -           -           -           -        0.000E+00   0.000E+00   1.000E+00
    17      -          14.4338     19.0000     10.0000      -           -        0.000E+00   0.000E+00      -           -           -           -           -           -           -           -           -        0.000E+00   0.000E+00   1.000E+00
    18      -           4.0415     19.0000    -17.0000      -           -        0.000E+00   0.000E+00      -           -           -           -           -           -           -           -           -        0.000E+00   0.000E+00   1.000E+00
    19      -         -18.4752      6.0000    -17.0000      -           -        0.000E+00   0.000E+00      -           -           -           -           -           -           -           -           -        0.000E+00   0.000E+00   1.000E+00
    20      -         -18.4752     -6.0000    -17.0000      -           -        0.000E+00   0.000E+00      -           -           -           -           -           -           -           -           -        0.000E+00   0.000E+00   1.000E+00
    21      -           4.0415    -19.0000    -17.0000      -           -        0.000E+00   0.000E+00      -           -           -           -           -           -           -           -           -        0.000E+00   0.000E+00   1.000E+00
    22      -          14.4338    -13.0000    -17.0000      -           -        0.000E+00   0.000E+00      -           -           -           -           -           -           -           -           -        0.000E+00   0.000E+00   1.000E+00
    23      -          14.4338     13.0000    -17.0000      -           -        0.000E+00   0.000E+00      -           -           -           -           -           -           -           -           -        0.000E+00   0.000E+00   1.000E+00
    24      -           1.6250      2.8150     10.0000      -           -        0.000E+00   0.000E+00      -           -           -           -           -           -           -           -           -        0.000E+00   0.000E+00   1.000E+00
    25      -          11.4338     19.8039     10.0000      -           -        0.000E+00   0.000E+00      -           -           -           -           -           -           -           -           -        0.000E+00   0.000E+00   1.000E+00
    26      -          -3.2500      0.0000     10.0000      -           -        0.000E+00   0.000E+00      -           -           -           -           -           -           -           -           -        0.000E+00   0.000E+00   1.000E+00
    27      -         -22.8700      0.0000     10.0000      -           -        0.000E+00   0.000E+00      -           -           -           -           -           -           -           -           -        0.000E+00   0.000E+00   1.000E+00
    28      -           1.6250     -2.8150     10.0000      -           -        0.000E+00   0.000E+00      -           -           -           -           -           -           -           -           -        0.000E+00   0.000E+00   1.000E+00
    29      -          11.4338    -19.8039     10.0000      -           -        0.000E+00   0.000E+00      -           -           -           -           -           -           -           -           -        0.000E+00   0.000E+00   1.000E+00
    30      -           1.6250      2.8150    -17.0000      -           -        0.000E+00   0.000E+00      -           -           -           -           -           -           -           -           -        0.000E+00   0.000E+00   1.000E+00
    31      -           8.4338     14.6077    -17.0000      -           -        0.000E+00   0.000E+00      -           -           -           -           -           -           -           -           -        0.000E+00   0.000E+00   1.000E+00
    32      -          -3.2500      0.0000    -17.0000      -           -        0.000E+00   0.000E+00      -           -           -           -           -           -           -           -           -        0.000E+00   0.000E+00   1.000E+00
    33      -         -16.8700      0.0000    -17.0000      -           -        0.000E+00   0.000E+00      -           -           -           -           -           -           -           -           -        0.000E+00   0.000E+00   1.000E+00
    34      -           1.6250     -2.8150    -17.0000      -           -        0.000E+00   0.000E+00      -           -           -           -           -           -           -           -           -        0.000E+00   0.000E+00   1.000E+00
    35      -           8.4338    -14.6077    -17.0000      -           -        0.000E+00   0.000E+00      -           -           -           -           -           -           -           -           -        0.000E+00   0.000E+00   1.000E+00
    36      -           1.6250      2.8150    -16.2000      -           -        0.000E+00   0.000E+00      -           -           -           -           -           -           -           -           -        0.000E+00   0.000E+00   1.000E+00
    37      -          11.4338     19.8039      9.1300      -           -        0.000E+00   0.000E+00      -           -           -           -           -           -           -           -           -        0.000E+00   0.000E+00   1.000E+00
    38      -          -3.2500      0.0000    -16.2000      -           -        0.000E+00   0.000E+00      -           -           -           -           -           -           -           -           -        0.000E+00   0.000E+00   1.000E+00
    39      -         -22.8700      0.0000      9.1300      -           -        0.000E+00   0.000E+00      -           -           -           -           -           -           -           -           -        0.000E+00   0.000E+00   1.000E+00
    40      -           1.6250     -2.8150    -16.2000      -           -        0.000E+00   0.000E+00      -           -           -           -           -           -           -           -           -        0.000E+00   0.000E+00   1.000E+00
    41      -          11.4338    -19.8039      9.1300      -           -        0.000E+00   0.000E+00      -           -           -           -           -           -           -           -           -        0.000E+00   0.000E+00   1.000E+00
    42      -          14.4338     25.0000    -19.9400      -           -        0.000E+00   0.000E+00      -           -           -           -           -           -           -           -           -        0.000E+00   0.000E+00   1.000E+00
    43      -         -28.8675      0.0000    -19.9400      -           -        0.000E+00   0.000E+00      -           -           -           -           -           -           -           -           -        0.000E+00   0.000E+00   1.000E+00
    44      -          14.4338    -25.0000    -19.9400      -           -        0.000E+00   0.000E+00      -           -           -           -           -           -           -           -           -        0.000E+00   0.000E+00   1.000E+00
    45           1      0.0000      0.0000    -19.0000   3.250E+00   3.000E-02   0.000E+00   0.000E+00           T           F   0.000E+00   5.600E-01   0.000E+00   0.000E+00   0.000E+00   0.000E+00   0.000E+00         -           -           -  
    46           1      0.0000      0.0000    -18.0000   3.250E+00   3.000E-02   0.000E+00   0.000E+00           T           F   0.000E+00   5.600E-01   0.000E+00   0.000E+00   0.000E+00   0.000E+00   0.000E+00         -           -           -  
    47           1      0.0000      0.0000    -17.0000   3.250E+00   3.000E-02   0.000E+00   0.000E+00           T           F   0.000E+00   5.600E-01   0.000E+00   0.000E+00   0.000E+00   0.000E+00   0.000E+00         -           -           -  
    48           1      0.0000      0.0000    -16.0000   3.250E+00   3.000E-02   0.000E+00   0.000E+00           T           F   0.000E+00   5.600E-01   0.000E+00   0.000E+00   0.000E+00   0.000E+00   0.000E+00         -           -           -  
    49           1      0.0000      0.0000    -15.0000   3.250E+00   3.000E-02   0.000E+00   0.000E+00           T           F   0.000E+00   5.600E-01   0.000E+00   0.000E+00   0.000E+00   0.000E+00   0.000E+00         -           -           -  
    50           1      0.0000      0.0000    -14.0000   3.250E+00   3.000E-02   0.000E+00   0.000E+00           T           F   0.000E+00   5.600E-01   0.000E+00   0.000E+00   0.000E+00   0.000E+00   0.000E+00         -           -           -  
    51           1      0.0000      0.0000    -13.0000   3.250E+00   3.000E-02   0.000E+00   0.000E+00           T           F   0.000E+00   5.600E-01   0.000E+00   0.000E+00   0.000E+00   0.000E+00   0.000E+00         -           -           -  
    52           1      0.0000      0.0000    -12.0000   3.250E+00   3.000E-02   0.000E+00   0.000E+00           T           F   0.000E+00   5.600E-01   0.000E+00   0.000E+00   0.000E+00   0.000E+00   0.000E+00         -           -           -  
    53           1      0.0000      0.0000    -11.0000   3.250E+00   3.000E-02   0.000E+00   0.000E+00           T           F   0.000E+00   5.600E-01   0.000E+00   0.000E+00   0.000E+00   0.000E+00   0.000E+00         -           -           -  
    54           1      0.0000      0.0000    -10.0000   3.250E+00   3.000E-02   0.000E+00   0.000E+00           T           F   0.000E+00   5.600E-01   0.000E+00   0.000E+00   0.000E+00   0.000E+00   0.000E+00         -           -           -  
    55           1      0.0000      0.0000     -9.0000   3.250E+00   3.000E-02   0.000E+00   0.000E+00           T           F   0.000E+00   5.600E-01   0.000E+00   0.000E+00   0.000E+00   0.000E+00   0.000E+00         -           -           -  
    56           1      0.0000      0.0000     -8.0000   3.250E+00   3.000E-02   0.000E+00   0.000E+00           T           F   0.000E+00   5.600E-01   0.000E+00   0.000E+00   0.000E+00   0.000E+00   0.000E+00         -           -           -  
    57           1      0.0000      0.0000     -7.0000   3.250E+00   3.000E-02   0.000E+00   0.000E+00           T           F   0.000E+00   5.600E-01   0.000E+00   0.000E+00   0.000E+00   0.000E+00   0.000E+00         -           -           -  
    58           1      0.0000      0.0000     -6.0000   3.250E+00   3.000E-02   0.000E+00   0.000E+00           T           F   0.000E+00   5.600E-01   0.000E+00   0.000E+00   0.000E+00   0.000E+00   0.000E+00         -           -           -  
    59           1      0.0000      0.0000     -5.0000   3.250E+00   3.000E-02   0.000E+00   0.000E+00           T           F   0.000E+00   5.600E-01   0.000E+00   0.000E+00   0.000E+00   0.000E+00   0.000E+00         -           -           -  
    60           1      0.0000      0.0000     -4.0000   3.250E+00   3.000E-02   0.000E+00   0.000E+00           T           F   0.000E+00   5.600E-01   0.000E+00   0.000E+00   0.000E+00   0.000E+00   0.000E+00         -           -           -  
    61           1      0.0000      0.0000     -3.0000   3.250E+00   3.000E-02   0.000E+00   0.000E+00           T           F   0.000E+00   5.600E-01   0.000E+00   0.000E+00   0.000E+00   0.000E+00   0.000E+00         -           -           -  
    62           1      0.0000      0.0000     -2.0000   3.250E+00   3.000E-02   0.000E+00   0.000E+00           T           F   0.000E+00   5.600E-01   0.000E+00   0.000E+00   0.000E+00   0.000E+00   0.000E+00         -           -           -  
    63           1      0.0000      0.0000     -1.0000   3.250E+00   3.000E-02   0.000E+00   0.000E+00           T           F   0.000E+00   5.600E-01   0.000E+00   0.000E+00   0.000E+00   0.000E+00   0.000E+00         -           -           -  
    64           1      0.0000      0.0000      0.0000   3.250E+00   3.000E-02   0.000E+00   0.000E+00           T           F   0.000E+00   5.600E-01   0.000E+00   0.000E+00   0.000E+00   0.000E+00   0.000E+00         -           -           -  
    65           1      0.0000      0.0000      1.0000   3.250E+00   3.000E-02   0.000E+00   0.000E+00           T           F   0.000E+00   5.600E-01   0.000E+00   0.000E+00   0.000E+00   0.000E+00   0.000E+00         -           -           -  
    66           1      0.0000      0.0000      2.0000   3.250E+00   3.000E-02   0.000E+00   0.000E+00           T           F   0.000E+00   5.600E-01   0.000E+00   0.000E+00   0.000E+00   0.000E+00   0.000E+00         -           -           -  
    67           1      0.0000      0.0000      3.0000   3.250E+00   3.000E-02   0.000E+00   0.000E+00           T           F   0.000E+00   5.600E-01   0.000E+00   0.000E+00   0.000E+00   0.000E+00   0.000E+00         -           -           -  
    68           1      0.0000      0.0000      4.0000   3.250E+00   3.000E-02   0.000E+00   0.000E+00           T           F   0.000E+00   5.600E-01   0.000E+00   0.000E+00   0.000E+00   0.000E+00   0.000E+00         -           -           -  
    69           1      0.0000      0.0000      5.0000   3.250E+00   3.000E-02   0.000E+00   0.000E+00           T           F   0.000E+00   5.600E-01   0.000E+00   0.000E+00   0.000E+00   0.000E+00   0.000E+00         -           -           -  
    70           1      0.0000      0.0000      6.0000   3.250E+00   3.000E-02   0.000E+00   0.000E+00           T           F   0.000E+00   5.600E-01   0.000E+00   0.000E+00   0.000E+00   0.000E+00   0.000E+00         -           -           -  
    71           1      0.0000      0.0000      7.0000   3.250E+00   3.000E-02   0.000E+00   0.000E+00           T           F   0.000E+00   5.600E-01   0.000E+00   0.000E+00   0.000E+00   0.000E+00   0.000E+00         -           -           -  
    72           1      0.0000      0.0000      8.0000   3.250E+00   3.000E-02   0.000E+00   0.000E+00           T           F   0.000E+00   5.600E-01   0.000E+00   0.000E+00   0.000E+00   0.000E+00   0.000E+00         -           -           -  
    73           1      0.0000      0.0000      9.0000   3.250E+00   3.000E-02   0.000E+00   0.000E+00           T           F   0.000E+00   5.600E-01   0.000E+00   0.000E+00   0.000E+00   0.000E+00   0.000E+00         -           -           -  
    74           2     14.4338     25.0000    -13.0000   6.000E+00   6.000E-02   0.000E+00   0.000E+00           T           T   1.136E+05   6.100E-01   0.000E+00   0.000E+00   0.000E+00   0.000E+00   0.000E+00         -           -           -  
    75           2     14.4338     25.0000    -12.0000   6.000E+00   6.000E-02   0.000E+00   0.000E+00           T           T   1.136E+05   6.100E-01   0.000E+00   0.000E+00   0.000E+00   0.000E+00   0.000E+00         -           -           -  
    76           2     14.4338     25.0000    -11.0000   6.000E+00   6.000E-02   0.000E+00   0.000E+00           T           T   1.136E+05   6.100E-01   0.000E+00   0.000E+00   0.000E+00   0.000E+00   0.000E+00         -           -           -  
    77           2     14.4338     25.0000    -10.0000   6.000E+00   6.000E-02   0.000E+00   0.000E+00           T           T   1.136E+05   6.100E-01   0.000E+00   0.000E+00   0.000E+00   0.000E+00   0.000E+00         -           -           -  
    78           2     14.4338     25.0000     -9.0000   6.000E+00   6.000E-02   0.000E+00   0.000E+00           T           T   1.136E+05   6.100E-01   0.000E+00   0.000E+00   0.000E+00   0.000E+00   0.000E+00         -           -           -  
    79           2     14.4338     25.0000     -8.0000   6.000E+00   6.000E-02   0.000E+00   0.000E+00           T           T   1.136E+05   6.100E-01   0.000E+00   0.000E+00   0.000E+00   0.000E+00   0.000E+00         -           -           -  
    80           2     14.4338     25.0000     -7.0000   6.000E+00   6.000E-02   0.000E+00   0.000E+00           T           T   9.430E+04   6.100E-01   0.000E+00   0.000E+00   0.000E+00   0.000E+00   0.000E+00         -           -           -  
    81           2     14.4338     25.0000     -6.0000   6.000E+00   6.000E-02   0.000E+00   0.000E+00           T           F   0.000E+00   6.100E-01   0.000E+00   0.000E+00   0.000E+00   0.000E+00   0.000E+00         -           -           -  
    82           2     14.4338     25.0000     -5.0000   6.000E+00   6.000E-02   0.000E+00   0.000E+00           T           F   0.000E+00   6.100E-01   0.000E+00   0.000E+00   0.000E+00   0.000E+00   0.000E+00         -           -           -  
    83           2     14.4338     25.0000     -4.0000   6.000E+00   6.000E-02   0.000E+00   0.000E+00           T           F   0.000E+00   6.100E-01   0.000E+00   0.000E+00   0.000E+00   0.000E+00   0.000E+00         -           -           -  
    84           2     14.4338     25.0000     -3.0000   6.000E+00   6.000E-02   0.000E+00   0.000E+00           T           F   0.000E+00   6.100E-01   0.000E+00   0.000E+00   0.000E+00   0.000E+00   0.000E+00         -           -           -  
    85           2     14.4338     25.0000     -2.0000   6.000E+00   6.000E-02   0.000E+00   0.000E+00           T           F   0.000E+00   6.100E-01   0.000E+00   0.000E+00   0.000E+00   0.000E+00   0.000E+00         -           -           -  
    86           2     14.4338     25.0000     -1.0000   6.000E+00   6.000E-02   0.000E+00   0.000E+00           T           F   0.000E+00   6.100E-01   0.000E+00   0.000E+00   0.000E+00   0.000E+00   0.000E+00         -           -           -  
    87           2     14.4338     25.0000      0.0000   6.000E+00   6.000E-02   0.000E+00   0.000E+00           T           F   0.000E+00   6.100E-01   0.000E+00   0.000E+00   0.000E+00   0.000E+00   0.000E+00         -           -           -  
    88           2     14.4338     25.0000      1.0000   6.000E+00   6.000E-02   0.000E+00   0.000E+00           T           F   0.000E+00   6.100E-01   0.000E+00   0.000E+00   0.000E+00   0.000E+00   0.000E+00         -           -           -  
    89           2     14.4338     25.0000      2.0000   6.000E+00   6.000E-02   0.000E+00   0.000E+00           T           F   0.000E+00   6.100E-01   0.000E+00   0.000E+00   0.000E+00   0.000E+00   0.000E+00         -           -           -  
    90           2     14.4338     25.0000      3.0000   6.000E+00   6.000E-02   0.000E+00   0.000E+00           T           F   0.000E+00   6.100E-01   0.000E+00   0.000E+00   0.000E+00   0.000E+00   0.000E+00         -           -           -  
    91           2     14.4338     25.0000      4.0000   6.000E+00   6.000E-02   0.000E+00   0.000E+00           T           F   0.000E+00   6.100E-01   0.000E+00   0.000E+00   0.000E+00   0.000E+00   0.000E+00         -           -           -  
    92           2     14.4338     25.0000      5.0000   6.000E+00   6.000E-02   0.000E+00   0.000E+00           T           F   0.000E+00   6.100E-01   0.000E+00   0.000E+00   0.000E+00   0.000E+00   0.000E+00         -           -           -  
    93           2     14.4338     25.0000      6.0000   6.000E+00   6.000E-02   0.000E+00   0.000E+00           T           F   0.000E+00   6.100E-01   0.000E+00   0.000E+00   0.000E+00   0.000E+00   0.000E+00         -           -           -  
    94           2     14.4338     25.0000      7.0000   6.000E+00   6.000E-02   0.000E+00   0.000E+00           T           F   0.000E+00   6.100E-01   0.000E+00   0.000E+00   0.000E+00   0.000E+00   0.000E+00         -           -           -  
    95           2     14.4338     25.0000      8.0000   6.000E+00   6.000E-02   0.000E+00   0.000E+00           T           F   0.000E+00   6.100E-01   0.000E+00   0.000E+00   0.000E+00   0.000E+00   0.000E+00         -           -           -  
    96           2     14.4338     25.0000      9.0000   6.000E+00   6.000E-02   0.000E+00   0.000E+00           T           F   0.000E+00   6.100E-01   0.000E+00   0.000E+00   0.000E+00   0.000E+00   0.000E+00         -           -           -  
    97           2     14.4338     25.0000     10.0000   6.000E+00   6.000E-02   0.000E+00   0.000E+00           T           F   0.000E+00   6.100E-01   0.000E+00   0.000E+00   0.000E+00   0.000E+00   0.000E+00         -           -           -  
    98           2     14.4338     25.0000     11.0000   6.000E+00   6.000E-02   0.000E+00   0.000E+00           T           F   0.000E+00   6.100E-01   0.000E+00   0.000E+00   0.000E+00   0.000E+00   0.000E+00         -           -           -  
    99           3    -28.8675      0.0000    -13.0000   6.000E+00   6.000E-02   0.000E+00   0.000E+00           T           T   1.136E+05   6.100E-01   0.000E+00   0.000E+00   0.000E+00   0.000E+00   0.000E+00         -           -           -  
   100           3    -28.8675      0.0000    -12.0000   6.000E+00   6.000E-02   0.000E+00   0.000E+00           T           T   1.136E+05   6.100E-01   0.000E+00   0.000E+00   0.000E+00   0.000E+00   0.000E+00         -           -           -  
   101           3    -28.8675      0.0000    -11.0000   6.000E+00   6.000E-02   0.000E+00   0.000E+00           T           T   1.136E+05   6.100E-01   0.000E+00   0.000E+00   0.000E+00   0.000E+00   0.000E+00         -           -           -  
   102           3    -28.8675      0.0000    -10.0000   6.000E+00   6.000E-02   0.000E+00   0.000E+00           T           T   1.136E+05   6.100E-01   0.000E+00   0.000E+00   0.000E+00   0.000E+00   0.000E+00         -           -           -  
   103           3    -28.8675      0.0000     -9.0000   6.000E+00   6.000E-02   0.000E+00   0.000E+00           T           T   1.136E+05   6.100E-01   0.000E+00   0.000E+00   0.000E+00   0.000E+00   0.000E+00         -           -           -  
   104           3    -28.8675      0.0000     -8.0000   6.000E+00   6.000E-02   0.000E+00   0.000E+00           T           T   1.136E+05   6.100E-01   0.000E+00   0.000E+00   0.000E+00   0.000E+00   0.000E+00         -           -           -  
   105           3    -28.8675      0.0000     -7.0000   6.000E+00   6.000E-02   0.000E+00   0.000E+00           T           T   9.430E+04   6.100E-01   0.000E+00   0.000E+00   0.000E+00   0.000E+00   0.000E+00         -           -           -  
   106           3    -28.8675      0.0000     -6.0000   6.000E+00   6.000E-02   0.000E+00   0.000E+00           T           F   0.000E+00   6.100E-01   0.000E+00   0.000E+00   0.000E+00   0.000E+00   0.000E+00         -           -           -  
   107           3    -28.8675      0.0000     -5.0000   6.000E+00   6.000E-02   0.000E+00   0.000E+00           T           F   0.000E+00   6.100E-01   0.000E+00   0.000E+00   0.000E+00   0.000E+00   0.000E+00         -           -           -  
   108           3    -28.8675      0.0000     -4.0000   6.000E+00   6.000E-02   0.000E+00   0.000E+00           T           F   0.000E+00   6.100E-01   0.000E+00   0.000E+00   0.000E+00   0.000E+00   0.000E+00         -           -           -  
   109           3    -28.8675      0.0000     -3.0000   6.000E+00   6.000E-02   0.000E+00   0.000E+00           T           F   0.000E+00   6.100E-01   0.000E+00   0.000E+00   0.000E+00   0.000E+00   0.000E+00         -           -           -  
   110           3    -28.8675      0.0000     -2.0000   6.000E+00   6.000E-02   0.000E+00   0.000E+00           T           F   0.000E+00   6.100E-01   0.000E+00   0.000E+00   0.000E+00   0.000E+00   0.000E+00         -           -           -  
   111           3    -28.8675      0.0000     -1.0000   6.000E+00   6.000E-02   0.000E+00   0.000E+00           T           F   0.000E+00   6.100E-01   0.000E+00   0.000E+00   0.000E+00   0.000E+00   0.000E+00         -           -           -  
   112           3    -28.8675      0.0000      0.0000   6.000E+00   6.000E-02   0.000E+00   0.000E+00           T           F   0.000E+00   6.100E-01   0.000E+00   0.000E+00   0.000E+00   0.000E+00   0.000E+00         -           -           -  
   113           3    -28.8675      0.0000      1.0000   6.000E+00   6.000E-02   0.000E+00   0.000E+00           T           F   0.000E+00   6.100E-01   0.000E+00   0.000E+00   0.000E+00   0.000E+00   0.000E+00         -           -           -  
   114           3    -28.8675      0.0000      2.0000   6.000E+00   6.000E-02   0.000E+00   0.000E+00           T           F   0.000E+00   6.100E-01   0.000E+00   0.000E+00   0.000E+00   0.000E+00   0.000E+00         -           -           -  
   115           3    -28.8675      0.0000      3.0000   6.000E+00   6.000E-02   0.000E+00   0.000E+00           T           F   0.000E+00   6.100E-01   0.000E+00   0.000E+00   0.000E+00   0.000E+00   0.000E+00         -           -           -  
   116           3    -28.8675      0.0000      4.0000   6.000E+00   6.000E-02   0.000E+00   0.000E+00           T           F   0.000E+00   6.100E-01   0.000E+00   0.000E+00   0.000E+00   0.000E+00   0.000E+00         -           -           -  
   117           3    -28.8675      0.0000      5.0000   6.000E+00   6.000E-02   0.000E+00   0.000E+00           T           F   0.000E+00   6.100E-01   0.000E+00   0.000E+00   0.000E+00   0.000E+00   0.000E+00         -           -           -  
   118           3    -28.8675      0.0000      6.0000   6.000E+00   6.000E-02   0.000E+00   0.000E+00           T           F   0.000E+00   6.100E-01   0.000E+00   0.000E+00   0.000E+00   0.000E+00   0.000E+00         -           -           -  
   119           3    -28.8675      0.0000      7.0000   6.000E+00   6.000E-02   0.000E+00   0.000E+00           T           F   0.000E+00   6.100E-01   0.000E+00   0.000E+00   0.000E+00   0.000E+00   0.000E+00         -           -           -  
   120           3    -28.8675      0.0000      8.0000   6.000E+00   6.000E-02   0.000E+00   0.000E+00           T           F   0.000E+00   6.100E-01   0.000E+00   0.000E+00   0.000E+00   0.000E+00   0.000E+00         -           -           -  
   121           3    -28.8675      0.0000      9.0000   6.000E+00   6.000E-02   0.000E+00   0.000E+00           T           F   0.000E+00   6.100E-01   0.000E+00   0.000E+00   0.000E+00   0.000E+00   0.000E+00         -           -           -  
   122           3    -28.8675      0.0000     10.0000   6.000E+00   6.000E-02   0.000E+00   0.000E+00           T           F   0.000E+00   6.100E-01   0.000E+00   0.000E+00   0.000E+00   0.000E+00   0.000E+00         -           -           -  
   123           3    -28.8675      0.0000     11.0000   6.000E+00   6.000E-02   0.000E+00   0.000E+00           T           F   0.000E+00   6.100E-01   0.000E+00   0.000E+00   0.000E+00   0.000E+00   0.000E+00         -           -           -  
   124           4     14.4338    -25.0000    -13.0000   6.000E+00   6.000E-02   0.000E+00   0.000E+00           T           T   1.136E+05   6.100E-01   0.000E+00   0.000E+00   0.000E+00   0.000E+00   0.000E+00         -           -           -  
   125           4     14.4338    -25.0000    -12.0000   6.000E+00   6.000E-02   0.000E+00   0.000E+00           T           T   1.136E+05   6.100E-01   0.000E+00   0.000E+00   0.000E+00   0.000E+00   0.000E+00         -           -           -  
   126           4     14.4338    -25.0000    -11.0000   6.000E+00   6.000E-02   0.000E+00   0.000E+00           T           T   1.136E+05   6.100E-01   0.000E+00   0.000E+00   0.000E+00   0.000E+00   0.000E+00         -           -           -  
   127           4     14.4338    -25.0000    -10.0000   6.000E+00   6.000E-02   0.000E+00   0.000E+00           T           T   1.136E+05   6.100E-01   0.000E+00   0.000E+00   0.000E+00   0.000E+00   0.000E+00         -           -           -  
   128           4     14.4338    -25.0000     -9.0000   6.000E+00   6.000E-02   0.000E+00   0.000E+00           T           T   1.136E+05   6.100E-01   0.000E+00   0.000E+00   0.000E+00   0.000E+00   0.000E+00         -           -           -  
   129           4     14.4338    -25.0000     -8.0000   6.000E+00   6.000E-02   0.000E+00   0.000E+00           T           T   1.136E+05   6.100E-01   0.000E+00   0.000E+00   0.000E+00   0.000E+00   0.000E+00         -           -           -  
   130           4     14.4338    -25.0000     -7.0000   6.000E+00   6.000E-02   0.000E+00   0.000E+00           T           T   9.430E+04   6.100E-01   0.000E+00   0.000E+00   0.000E+00   0.000E+00   0.000E+00         -           -           -  
   131           4     14.4338    -25.0000     -6.0000   6.000E+00   6.000E-02   0.000E+00   0.000E+00           T           F   0.000E+00   6.100E-01   0.000E+00   0.000E+00   0.000E+00   0.000E+00   0.000E+00         -           -           -  
   132           4     14.4338    -25.0000     -5.0000   6.000E+00   6.000E-02   0.000E+00   0.000E+00           T           F   0.000E+00   6.100E-01   0.000E+00   0.000E+00   0.000E+00   0.000E+00   0.000E+00         -           -           -  
   133           4     14.4338    -25.0000     -4.0000   6.000E+00   6.000E-02   0.000E+00   0.000E+00           T           F   0.000E+00   6.100E-01   0.000E+00   0.000E+00   0.000E+00   0.000E+00   0.000E+00         -           -           -  
   134           4     14.4338    -25.0000     -3.0000   6.000E+00   6.000E-02   0.000E+00   0.000E+00           T           F   0.000E+00   6.100E-01   0.000E+00   0.000E+00   0.000E+00   0.000E+00   0.000E+00         -           -           -  
   135           4     14.4338    -25.0000     -2.0000   6.000E+00   6.000E-02   0.000E+00   0.000E+00           T           F   0.000E+00   6.100E-01   0.000E+00   0.000E+00   0.000E+00   0.000E+00   0.000E+00         -           -           -  
   136           4     14.4338    -25.0000     -1.0000   6.000E+00   6.000E-02   0.000E+00   0.000E+00           T           F   0.000E+00   6.100E-01   0.000E+00   0.000E+00   0.000E+00   0.000E+00   0.000E+00         -           -           -  
   137           4     14.4338    -25.0000      0.0000   6.000E+00   6.000E-02   0.000E+00   0.000E+00           T           F   0.000E+00   6.100E-01   0.000E+00   0.000E+00   0.000E+00   0.000E+00   0.000E+00         -           -           -  
   138           4     14.4338    -25.0000      1.0000   6.000E+00   6.000E-02   0.000E+00   0.000E+00           T           F   0.000E+00   6.100E-01   0.000E+00   0.000E+00   0.000E+00   0.000E+00   0.000E+00         -           -           -  
   139           4     14.4338    -25.0000      2.0000   6.000E+00   6.000E-02   0.000E+00   0.000E+00           T           F   0.000E+00   6.100E-01   0.000E+00   0.000E+00   0.000E+00   0.000E+00   0.000E+00         -           -           -  
   140           4     14.4338    -25.0000      3.0000   6.000E+00   6.000E-02   0.000E+00   0.000E+00           T           F   0.000E+00   6.100E-01   0.000E+00   0.000E+00   0.000E+00   0.000E+00   0.000E+00         -           -           -  
   141           4     14.4338    -25.0000      4.0000   6.000E+00   6.000E-02   0.000E+00   0.000E+00           T           F   0.000E+00   6.100E-01   0.000E+00   0.000E+00   0.000E+00   0.000E+00   0.000E+00         -           -           -  
   142           4     14.4338    -25.0000      5.0000   6.000E+00   6.000E-02   0.000E+00   0.000E+00           T           F   0.000E+00   6.100E-01   0.000E+00   0.000E+00   0.000E+00   0.000E+00   0.000E+00         -           -           -  
   143           4     14.4338    -25.0000      6.0000   6.000E+00   6.000E-02   0.000E+00   0.000E+00           T           F   0.000E+00   6.100E-01   0.000E+00   0.000E+00   0.000E+00   0.000E+00   0.000E+00         -           -           -  
   144           4     14.4338    -25.0000      7.0000   6.000E+00   6.000E-02   0.000E+00   0.000E+00           T           F   0.000E+00   6.100E-01   0.000E+00   0.000E+00   0.000E+00   0.000E+00   0.000E+00         -           -           -  
   145           4     14.4338    -25.0000      8.0000   6.000E+00   6.000E-02   0.000E+00   0.000E+00           T           F   0.000E+00   6.100E-01   0.000E+00   0.000E+00   0.000E+00   0.000E+00   0.000E+00         -           -           -  
   146           4     14.4338    -25.0000      9.0000   6.000E+00   6.000E-02   0.000E+00   0.000E+00           T           F   0.000E+00   6.100E-01   0.000E+00   0.000E+00   0.000E+00   0.000E+00   0.000E+00         -           -           -  
   147           4     14.4338    -25.0000     10.0000   6.000E+00   6.000E-02   0.000E+00   0.000E+00           T           F   0.000E+00   6.100E-01   0.000E+00   0.000E+00   0.000E+00   0.000E+00   0.000E+00         -           -           -  
   148           4     14.4338    -25.0000     11.0000   6.000E+00   6.000E-02   0.000E+00   0.000E+00           T           F   0.000E+00   6.100E-01   0.000E+00   0.000E+00   0.000E+00   0.000E+00   0.000E+00         -           -           -  
   149           5     14.4338     25.0000    -18.9500   1.200E+01   6.000E-02   0.000E+00   0.000E+00           T           T   4.545E+05   6.800E-01   0.000E+00   0.000E+00   0.000E+00   0.000E+00   0.000E+00         -           -           -  
   150           5     14.4338     25.0000    -17.9600   1.200E+01   6.000E-02   0.000E+00   0.000E+00           T           T   4.545E+05   6.800E-01   0.000E+00   0.000E+00   0.000E+00   0.000E+00   0.000E+00         -           -           -  
   151           5     14.4338     25.0000    -16.9700   1.200E+01   6.000E-02   0.000E+00   0.000E+00           T           T   4.545E+05   6.800E-01   0.000E+00   0.000E+00   0.000E+00   0.000E+00   0.000E+00         -           -           -  
   152           5     14.4338     25.0000    -15.9800   1.200E+01   6.000E-02   0.000E+00   0.000E+00           T           T   4.545E+05   6.800E-01   0.000E+00   0.000E+00   0.000E+00   0.000E+00   0.000E+00         -           -           -  
   153           5     14.4338     25.0000    -14.9900   1.200E+01   6.000E-02   0.000E+00   0.000E+00           T           T   4.591E+04   6.800E-01   0.000E+00   0.000E+00   0.000E+00   0.000E+00   0.000E+00         -           -           -  
   154           6    -28.8675      0.0000    -18.9500   1.200E+01   6.000E-02   0.000E+00   0.000E+00           T           T   4.545E+05   6.800E-01   0.000E+00   0.000E+00   0.000E+00   0.000E+00   0.000E+00         -           -           -  
   155           6    -28.8675      0.0000    -17.9600   1.200E+01   6.000E-02   0.000E+00   0.000E+00           T           T   4.545E+05   6.800E-01   0.000E+00   0.000E+00   0.000E+00   0.000E+00   0.000E+00         -           -           -  
   156           6    -28.8675      0.0000    -16.9700   1.200E+01   6.000E-02   0.000E+00   0.000E+00           T           T   4.545E+05   6.800E-01   0.000E+00   0.000E+00   0.000E+00   0.000E+00   0.000E+00         -           -           -  
   157           6    -28.8675      0.0000    -15.9800   1.200E+01   6.000E-02   0.000E+00   0.000E+00           T           T   4.545E+05   6.800E-01   0.000E+00   0.000E+00   0.000E+00   0.000E+00   0.000E+00         -           -           -  
   158           6    -28.8675      0.0000    -14.9900   1.200E+01   6.000E-02   0.000E+00   0.000E+00           T           T   4.591E+04   6.800E-01   0.000E+00   0.000E+00   0.000E+00   0.000E+00   0.000E+00         -           -           -  
   159           7     14.4338    -25.0000    -18.9500   1.200E+01   6.000E-02   0.000E+00   0.000E+00           T           T   4.545E+05   6.800E-01   0.000E+00   0.000E+00   0.000E+00   0.000E+00   0.000E+00         -           -           -  
   160           7     14.4338    -25.0000    -17.9600   1.200E+01   6.000E-02   0.000E+00   0.000E+00           T           T   4.545E+05   6.800E-01   0.000E+00   0.000E+00   0.000E+00   0.000E+00   0.000E+00         -           -           -  
   161           7     14.4338    -25.0000    -16.9700   1.200E+01   6.000E-02   0.000E+00   0.000E+00           T           T   4.545E+05   6.800E-01   0.000E+00   0.000E+00   0.000E+00   0.000E+00   0.000E+00         -           -           -  
   162           7     14.4338    -25.0000    -15.9800   1.200E+01   6.000E-02   0.000E+00   0.000E+00           T           T   4.545E+05   6.800E-01   0.000E+00   0.000E+00   0.000E+00   0.000E+00   0.000E+00         -           -           -  
   163           7     14.4338    -25.0000    -14.9900   1.200E+01   6.000E-02   0.000E+00   0.000E+00           T           T   4.591E+04   6.800E-01   0.000E+00   0.000E+00   0.000E+00   0.000E+00   0.000E+00         -           -           -  
   164           8      8.3716     21.5000     10.0000   8.000E-01   1.750E-02   0.000E+00   0.000E+00           T           F   0.000E+00   6.300E-01   0.000E+00   0.000E+00   0.000E+00   0.000E+00   0.000E+00         -           -           -  
   165           8      7.5056     21.0000     10.0000   8.000E-01   1.750E-02   0.000E+00   0.000E+00           T           F   0.000E+00   6.300E-01   0.000E+00   0.000E+00   0.000E+00   0.000E+00   0.000E+00         -           -           -  
   166           8      6.6395     20.5000     10.0000   8.000E-01   1.750E-02   0.000E+00   0.000E+00           T           F   0.000E+00   6.300E-01   0.000E+00   0.000E+00   0.000E+00   0.000E+00   0.000E+00         -           -           -  
   167           8      5.7735     20.0000     10.0000   8.000E-01   1.750E-02   0.000E+00   0.000E+00           T           F   0.000E+00   6.300E-01   0.000E+00   0.000E+00   0.000E+00   0.000E+00   0.000E+00         -           -           -  
   168           8      4.9075     19.5000     10.0000   8.000E-01   1.750E-02   0.000E+00   0.000E+00           T           F   0.000E+00   6.300E-01   0.000E+00   0.000E+00   0.000E+00   0.000E+00   0.000E+00         -           -           -  
   169           8      4.0415     19.0000     10.0000   8.000E-01   1.750E-02   0.000E+00   0.000E+00           T           F   0.000E+00   6.300E-01   0.000E+00   0.000E+00   0.000E+00   0.000E+00   0.000E+00         -           -           -  
   170           8      3.1754     18.5000     10.0000   8.000E-01   1.750E-02   0.000E+00   0.000E+00           T           F   0.000E+00   6.300E-01   0.000E+00   0.000E+00   0.000E+00   0.000E+00   0.000E+00         -           -           -  
   171           8      2.3094     18.0000     10.0000   8.000E-01   1.750E-02   0.000E+00   0.000E+00           T           F   0.000E+00   6.300E-01   0.000E+00   0.000E+00   0.000E+00   0.000E+00   0.000E+00         -           -           -  
   172           8      1.4434     17.5000     10.0000   8.000E-01   1.750E-02   0.000E+00   0.000E+00           T           F   0.000E+00   6.300E-01   0.000E+00   0.000E+00   0.000E+00   0.000E+00   0.000E+00         -           -           -  
   173           8      0.5774     17.0000     10.0000   8.000E-01   1.750E-02   0.000E+00   0.000E+00           T           F   0.000E+00   6.300E-01   0.000E+00   0.000E+00   0.000E+00   0.000E+00   0.000E+00         -           -           -  
   174           8     -0.2887     16.5000     10.0000   8.000E-01   1.750E-02   0.000E+00   0.000E+00           T           F   0.000E+00   6.300E-01   0.000E+00   0.000E+00   0.000E+00   0.000E+00   0.000E+00         -           -           -  
   175           8     -1.1547     16.0000     10.0000   8.000E-01   1.750E-02   0.000E+00   0.000E+00           T           F   0.000E+00   6.300E-01   0.000E+00   0.000E+00   0.000E+00   0.000E+00   0.000E+00         -           -           -  
   176           8     -2.0207     15.5000     10.0000   8.000E-01   1.750E-02   0.000E+00   0.000E+00           T           F   0.000E+00   6.300E-01   0.000E+00   0.000E+00   0.000E+00   0.000E+00   0.000E+00         -           -           -  
   177           8     -2.8867     15.0000     10.0000   8.000E-01   1.750E-02   0.000E+00   0.000E+00           T           F   0.000E+00   6.300E-01   0.000E+00   0.000E+00   0.000E+00   0.000E+00   0.000E+00         -           -           -  
   178           8     -3.7528     14.5000     10.0000   8.000E-01   1.750E-02   0.000E+00   0.000E+00           T           F   0.000E+00   6.300E-01   0.000E+00   0.000E+00   0.000E+00   0.000E+00   0.000E+00         -           -           -  
   179           8     -4.6188     14.0000     10.0000   8.000E-01   1.750E-02   0.000E+00   0.000E+00           T           F   0.000E+00   6.300E-01   0.000E+00   0.000E+00   0.000E+00   0.000E+00   0.000E+00         -           -           -  
   180           8     -5.4848     13.5000     10.0000   8.000E-01   1.750E-02   0.000E+00   0.000E+00           T           F   0.000E+00   6.300E-01   0.000E+00   0.000E+00   0.000E+00   0.000E+00   0.000E+00         -           -           -  
   181           8     -6.3508     13.0000     10.0000   8.000E-01   1.750E-02   0.000E+00   0.000E+00           T           F   0.000E+00   6.300E-01   0.000E+00   0.000E+00   0.000E+00   0.000E+00   0.000E+00         -           -           -  
   182           8     -7.2169     12.5000     10.0000   8.000E-01   1.750E-02   0.000E+00   0.000E+00           T           F   0.000E+00   6.300E-01   0.000E+00   0.000E+00   0.000E+00   0.000E+00   0.000E+00         -           -           -  
   183           8     -8.0829     12.0000     10.0000   8.000E-01   1.750E-02   0.000E+00   0.000E+00           T           F   0.000E+00   6.300E-01   0.000E+00   0.000E+00   0.000E+00   0.000E+00   0.000E+00         -           -           -  
   184           8     -8.9489     11.5000     10.0000   8.000E-01   1.750E-02   0.000E+00   0.000E+00           T           F   0.000E+00   6.300E-01   0.000E+00   0.000E+00   0.000E+00   0.000E+00   0.000E+00         -           -           -  
   185           8     -9.8149     11.0000     10.0000   8.000E-01   1.750E-02   0.000E+00   0.000E+00           T           F   0.000E+00   6.300E-01   0.000E+00   0.000E+00   0.000E+00   0.000E+00   0.000E+00         -           -           -  
   186           8    -10.6809     10.5000     10.0000   8.000E-01   1.750E-02   0.000E+00   0.000E+00           T           F   0.000E+00   6.300E-01   0.000E+00   0.000E+00   0.000E+00   0.000E+00   0.000E+00         -           -           -  
   187           8    -11.5470     10.0000     10.0000   8.000E-01   1.750E-02   0.000E+00   0.000E+00           T           F   0.000E+00   6.300E-01   0.000E+00   0.000E+00   0.000E+00   0.000E+00   0.000E+00         -           -           -  
   188           8    -12.4130      9.5000     10.0000   8.000E-01   1.750E-02   0.000E+00   0.000E+00           T           F   0.000E+00   6.300E-01   0.000E+00   0.000E+00   0.000E+00   0.000E+00   0.000E+00         -           -           -  
   189           8    -13.2790      9.0000     10.0000   8.000E-01   1.750E-02   0.000E+00   0.000E+00           T           F   0.000E+00   6.300E-01   0.000E+00   0.000E+00   0.000E+00   0.000E+00   0.000E+00         -           -           -  
   190           8    -14.1450      8.5000     10.0000   8.000E-01   1.750E-02   0.000E+00   0.000E+00           T           F   0.000E+00   6.300E-01   0.000E+00   0.000E+00   0.000E+00   0.000E+00   0.000E+00         -           -           -  
   191           8    -15.0111      8.0000     10.0000   8.000E-01   1.750E-02   0.000E+00   0.000E+00           T           F   0.000E+00   6.300E-01   0.000E+00   0.000E+00   0.000E+00   0.000E+00   0.000E+00         -           -           -  
   192           8    -15.8771      7.5000     10.0000   8.000E-01   1.750E-02   0.000E+00   0.000E+00           T           F   0.000E+00   6.300E-01   0.000E+00   0.000E+00   0.000E+00   0.000E+00   0.000E+00         -           -           -  
   193           8    -16.7431      7.0000     10.0000   8.000E-01   1.750E-02   0.000E+00   0.000E+00           T           F   0.000E+00   6.300E-01   0.000E+00   0.000E+00   0.000E+00   0.000E+00   0.000E+00         -           -           -  
   194           8    -17.6091      6.5000     10.0000   8.000E-01   1.750E-02   0.000E+00   0.000E+00           T           F   0.000E+00   6.300E-01   0.000E+00   0.000E+00   0.000E+00   0.000E+00   0.000E+00         -           -           -  
   195           8    -18.4752      6.0000     10.0000   8.000E-01   1.750E-02   0.000E+00   0.000E+00           T           F   0.000E+00   6.300E-01   0.000E+00   0.000E+00   0.000E+00   0.000E+00   0.000E+00         -           -           -  
   196           8    -19.3412      5.5000     10.0000   8.000E-01   1.750E-02   0.000E+00   0.000E+00           T           F   0.000E+00   6.300E-01   0.000E+00   0.000E+00   0.000E+00   0.000E+00   0.000E+00         -           -           -  
   197           8    -20.2072      5.0000     10.0000   8.000E-01   1.750E-02   0.000E+00   0.000E+00           T           F   0.000E+00   6.300E-01   0.000E+00   0.000E+00   0.000E+00   0.000E+00   0.000E+00         -           -           -  
   198           8    -21.0732      4.5000     10.0000   8.000E-01   1.750E-02   0.000E+00   0.000E+00           T           F   0.000E+00   6.300E-01   0.000E+00   0.000E+00   0.000E+00   0.000E+00   0.000E+00         -           -           -  
   199           8    -21.9393      4.0000     10.0000   8.000E-01   1.750E-02   0.000E+00   0.000E+00           T           F   0.000E+00   6.300E-01   0.000E+00   0.000E+00   0.000E+00   0.000E+00   0.000E+00         -           -           -  
   200           8    -22.8053      3.5000     10.0000   8.000E-01   1.750E-02   0.000E+00   0.000E+00           T           F   0.000E+00   6.300E-01   0.000E+00   0.000E+00   0.000E+00   0.000E+00   0.000E+00         -           -           -  
   201           9    -22.8053     -3.5000     10.0000   8.000E-01   1.750E-02   0.000E+00   0.000E+00           T           F   0.000E+00   6.300E-01   0.000E+00   0.000E+00   0.000E+00   0.000E+00   0.000E+00         -           -           -  
   202           9    -21.9393     -4.0000     10.0000   8.000E-01   1.750E-02   0.000E+00   0.000E+00           T           F   0.000E+00   6.300E-01   0.000E+00   0.000E+00   0.000E+00   0.000E+00   0.000E+00         -           -           -  
   203           9    -21.0732     -4.5000     10.0000   8.000E-01   1.750E-02   0.000E+00   0.000E+00           T           F   0.000E+00   6.300E-01   0.000E+00   0.000E+00   0.000E+00   0.000E+00   0.000E+00         -           -           -  
   204           9    -20.2072     -5.0000     10.0000   8.000E-01   1.750E-02   0.000E+00   0.000E+00           T           F   0.000E+00   6.300E-01   0.000E+00   0.000E+00   0.000E+00   0.000E+00   0.000E+00         -           -           -  
   205           9    -19.3412     -5.5000     10.0000   8.000E-01   1.750E-02   0.000E+00   0.000E+00           T           F   0.000E+00   6.300E-01   0.000E+00   0.000E+00   0.000E+00   0.000E+00   0.000E+00         -           -           -  
   206           9    -18.4752     -6.0000     10.0000   8.000E-01   1.750E-02   0.000E+00   0.000E+00           T           F   0.000E+00   6.300E-01   0.000E+00   0.000E+00   0.000E+00   0.000E+00   0.000E+00         -           -           -  
   207           9    -17.6091     -6.5000     10.0000   8.000E-01   1.750E-02   0.000E+00   0.000E+00           T           F   0.000E+00   6.300E-01   0.000E+00   0.000E+00   0.000E+00   0.000E+00   0.000E+00         -           -           -  
   208           9    -16.7431     -7.0000     10.0000   8.000E-01   1.750E-02   0.000E+00   0.000E+00           T           F   0.000E+00   6.300E-01   0.000E+00   0.000E+00   0.000E+00   0.000E+00   0.000E+00         -           -           -  
   209           9    -15.8771     -7.5000     10.0000   8.000E-01   1.750E-02   0.000E+00   0.000E+00           T           F   0.000E+00   6.300E-01   0.000E+00   0.000E+00   0.000E+00   0.000E+00   0.000E+00         -           -           -  
   210           9    -15.0111     -8.0000     10.0000   8.000E-01   1.750E-02   0.000E+00   0.000E+00           T           F   0.000E+00   6.300E-01   0.000E+00   0.000E+00   0.000E+00   0.000E+00   0.000E+00         -           -           -  
   211           9    -14.1450     -8.5000     10.0000   8.000E-01   1.750E-02   0.000E+00   0.000E+00           T           F   0.000E+00   6.300E-01   0.000E+00   0.000E+00   0.000E+00   0.000E+00   0.000E+00         -           -           -  
   212           9    -13.2790     -9.0000     10.0000   8.000E-01   1.750E-02   0.000E+00   0.000E+00           T           F   0.000E+00   6.300E-01   0.000E+00   0.000E+00   0.000E+00   0.000E+00   0.000E+00         -           -           -  
   213           9    -12.4130     -9.5000     10.0000   8.000E-01   1.750E-02   0.000E+00   0.000E+00           T           F   0.000E+00   6.300E-01   0.000E+00   0.000E+00   0.000E+00   0.000E+00   0.000E+00         -           -           -  
   214           9    -11.5470    -10.0000     10.0000   8.000E-01   1.750E-02   0.000E+00   0.000E+00           T           F   0.000E+00   6.300E-01   0.000E+00   0.000E+00   0.000E+00   0.000E+00   0.000E+00         -           -           -  
   215           9    -10.6809    -10.5000     10.0000   8.000E-01   1.750E-02   0.000E+00   0.000E+00           T           F   0.000E+00   6.300E-01   0.000E+00   0.000E+00   0.000E+00   0.000E+00   0.000E+00         -           -           -  
   216           9     -9.8149    -11.0000     10.0000   8.000E-01   1.750E-02   0.000E+00   0.000E+00           T           F   0.000E+00   6.300E-01   0.000E+00   0.000E+00   0.000E+00   0.000E+00   0.000E+00         -           -           -  
   217           9     -8.9489    -11.5000     10.0000   8.000E-01   1.750E-02   0.000E+00   0.000E+00           T           F   0.000E+00   6.300E-01   0.000E+00   0.000E+00   0.000E+00   0.000E+00   0.000E+00         -           -           -  
   218           9     -8.0829    -12.0000     10.0000   8.000E-01   1.750E-02   0.000E+00   0.000E+00           T           F   0.000E+00   6.300E-01   0.000E+00   0.000E+00   0.000E+00   0.000E+00   0.000E+00         -           -           -  
   219           9     -7.2169    -12.5000     10.0000   8.000E-01   1.750E-02   0.000E+00   0.000E+00           T           F   0.000E+00   6.300E-01   0.000E+00   0.000E+00   0.000E+00   0.000E+00   0.000E+00         -           -           -  
   220           9     -6.3508    -13.0000     10.0000   8.000E-01   1.750E-02   0.000E+00   0.000E+00           T           F   0.000E+00   6.300E-01   0.000E+00   0.000E+00   0.000E+00   0.000E+00   0.000E+00         -           -           -  
   221           9     -5.4848    -13.5000     10.0000   8.000E-01   1.750E-02   0.000E+00   0.000E+00           T           F   0.000E+00   6.300E-01   0.000E+00   0.000E+00   0.000E+00   0.000E+00   0.000E+00         -           -           -  
   222           9     -4.6188    -14.0000     10.0000   8.000E-01   1.750E-02   0.000E+00   0.000E+00           T           F   0.000E+00   6.300E-01   0.000E+00   0.000E+00   0.000E+00   0.000E+00   0.000E+00         -           -           -  
   223           9     -3.7528    -14.5000     10.0000   8.000E-01   1.750E-02   0.000E+00   0.000E+00           T           F   0.000E+00   6.300E-01   0.000E+00   0.000E+00   0.000E+00   0.000E+00   0.000E+00         -           -           -  
   224           9     -2.8867    -15.0000     10.0000   8.000E-01   1.750E-02   0.000E+00   0.000E+00           T           F   0.000E+00   6.300E-01   0.000E+00   0.000E+00   0.000E+00   0.000E+00   0.000E+00         -           -           -  
   225           9     -2.0207    -15.5000     10.0000   8.000E-01   1.750E-02   0.000E+00   0.000E+00           T           F   0.000E+00   6.300E-01   0.000E+00   0.000E+00   0.000E+00   0.000E+00   0.000E+00         -           -           -  
   226           9     -1.1547    -16.0000     10.0000   8.000E-01   1.750E-02   0.000E+00   0.000E+00           T           F   0.000E+00   6.300E-01   0.000E+00   0.000E+00   0.000E+00   0.000E+00   0.000E+00         -           -           -  
   227           9     -0.2887    -16.5000     10.0000   8.000E-01   1.750E-02   0.000E+00   0.000E+00           T           F   0.000E+00   6.300E-01   0.000E+00   0.000E+00   0.000E+00   0.000E+00   0.000E+00         -           -           -  
   228           9      0.5774    -17.0000     10.0000   8.000E-01   1.750E-02   0.000E+00   0.000E+00           T           F   0.000E+00   6.300E-01   0.000E+00   0.000E+00   0.000E+00   0.000E+00   0.000E+00         -           -           -  
   229           9      1.4434    -17.5000     10.0000   8.000E-01   1.750E-02   0.000E+00   0.000E+00           T           F   0.000E+00   6.300E-01   0.000E+00   0.000E+00   0.000E+00   0.000E+00   0.000E+00         -           -           -  
   230           9      2.3094    -18.0000     10.0000   8.000E-01   1.750E-02   0.000E+00   0.000E+00           T           F   0.000E+00   6.300E-01   0.000E+00   0.000E+00   0.000E+00   0.000E+00   0.000E+00         -           -           -  
   231           9      3.1754    -18.5000     10.0000   8.000E-01   1.750E-02   0.000E+00   0.000E+00           T           F   0.000E+00   6.300E-01   0.000E+00   0.000E+00   0.000E+00   0.000E+00   0.000E+00         -           -           -  
   232           9      4.0415    -19.0000     10.0000   8.000E-01   1.750E-02   0.000E+00   0.000E+00           T           F   0.000E+00   6.300E-01   0.000E+00   0.000E+00   0.000E+00   0.000E+00   0.000E+00         -           -           -  
   233           9      4.9075    -19.5000     10.0000   8.000E-01   1.750E-02   0.000E+00   0.000E+00           T           F   0.000E+00   6.300E-01   0.000E+00   0.000E+00   0.000E+00   0.000E+00   0.000E+00         -           -           -  
   234           9      5.7735    -20.0000     10.0000   8.000E-01   1.750E-02   0.000E+00   0.000E+00           T           F   0.000E+00   6.300E-01   0.000E+00   0.000E+00   0.000E+00   0.000E+00   0.000E+00         -           -           -  
   235           9      6.6395    -20.5000     10.0000   8.000E-01   1.750E-02   0.000E+00   0.000E+00           T           F   0.000E+00   6.300E-01   0.000E+00   0.000E+00   0.000E+00   0.000E+00   0.000E+00         -           -           -  
   236           9      7.5056    -21.0000     10.0000   8.000E-01   1.750E-02   0.000E+00   0.000E+00           T           F   0.000E+00   6.300E-01   0.000E+00   0.000E+00   0.000E+00   0.000E+00   0.000E+00         -           -           -  
   237           9      8.3716    -21.5000     10.0000   8.000E-01   1.750E-02   0.000E+00   0.000E+00           T           F   0.000E+00   6.300E-01   0.000E+00   0.000E+00   0.000E+00   0.000E+00   0.000E+00         -           -           -  
   238          10     14.4337    -18.0000     10.0000   8.000E-01   1.750E-02   0.000E+00   0.000E+00           T           F   0.000E+00   6.300E-01   0.000E+00   0.000E+00   0.000E+00   0.000E+00   0.000E+00         -           -           -  
   239          10     14.4338    -17.0000     10.0000   8.000E-01   1.750E-02   0.000E+00   0.000E+00           T           F   0.000E+00   6.300E-01   0.000E+00   0.000E+00   0.000E+00   0.000E+00   0.000E+00         -           -           -  
   240          10     14.4338    -16.0000     10.0000   8.000E-01   1.750E-02   0.000E+00   0.000E+00           T           F   0.000E+00   6.300E-01   0.000E+00   0.000E+00   0.000E+00   0.000E+00   0.000E+00         -           -           -  
   241          10     14.4338    -15.0000     10.0000   8.000E-01   1.750E-02   0.000E+00   0.000E+00           T           F   0.000E+00   6.300E-01   0.000E+00   0.000E+00   0.000E+00   0.000E+00   0.000E+00         -           -           -  
   242          10     14.4338    -14.0000     10.0000   8.000E-01   1.750E-02   0.000E+00   0.000E+00           T           F   0.000E+00   6.300E-01   0.000E+00   0.000E+00   0.000E+00   0.000E+00   0.000E+00         -           -           -  
   243          10     14.4338    -13.0000     10.0000   8.000E-01   1.750E-02   0.000E+00   0.000E+00           T           F   0.000E+00   6.300E-01   0.000E+00   0.000E+00   0.000E+00   0.000E+00   0.000E+00         -           -           -  
   244          10     14.4338    -12.0000     10.0000   8.000E-01   1.750E-02   0.000E+00   0.000E+00           T           F   0.000E+00   6.300E-01   0.000E+00   0.000E+00   0.000E+00   0.000E+00   0.000E+00         -           -           -  
   245          10     14.4338    -11.0000     10.0000   8.000E-01   1.750E-02   0.000E+00   0.000E+00           T           F   0.000E+00   6.300E-01   0.000E+00   0.000E+00   0.000E+00   0.000E+00   0.000E+00         -           -           -  
   246          10     14.4338    -10.0000     10.0000   8.000E-01   1.750E-02   0.000E+00   0.000E+00           T           F   0.000E+00   6.300E-01   0.000E+00   0.000E+00   0.000E+00   0.000E+00   0.000E+00         -           -           -  
   247          10     14.4338     -9.0000     10.0000   8.000E-01   1.750E-02   0.000E+00   0.000E+00           T           F   0.000E+00   6.300E-01   0.000E+00   0.000E+00   0.000E+00   0.000E+00   0.000E+00         -           -           -  
   248          10     14.4338     -8.0000     10.0000   8.000E-01   1.750E-02   0.000E+00   0.000E+00           T           F   0.000E+00   6.300E-01   0.000E+00   0.000E+00   0.000E+00   0.000E+00   0.000E+00         -           -           -  
   249          10     14.4338     -7.0000     10.0000   8.000E-01   1.750E-02   0.000E+00   0.000E+00           T           F   0.000E+00   6.300E-01   0.000E+00   0.000E+00   0.000E+00   0.000E+00   0.000E+00         -           -           -  
   250          10     14.4338     -6.0000     10.0000   8.000E-01   1.750E-02   0.000E+00   0.000E+00           T           F   0.000E+00   6.300E-01   0.000E+00   0.000E+00   0.000E+00   0.000E+00   0.000E+00         -           -           -  
   251          10     14.4338     -5.0000     10.0000   8.000E-01   1.750E-02   0.000E+00   0.000E+00           T           F   0.000E+00   6.300E-01   0.000E+00   0.000E+00   0.000E+00   0.000E+00   0.000E+00         -           -           -  
   252          10     14.4338     -4.0000     10.0000   8.000E-01   1.750E-02   0.000E+00   0.000E+00           T           F   0.000E+00   6.300E-01   0.000E+00   0.000E+00   0.000E+00   0.000E+00   0.000E+00         -           -           -  
   253          10     14.4338     -3.0000     10.0000   8.000E-01   1.750E-02   0.000E+00   0.000E+00           T           F   0.000E+00   6.300E-01   0.000E+00   0.000E+00   0.000E+00   0.000E+00   0.000E+00         -           -           -  
   254          10     14.4338     -2.0000     10.0000   8.000E-01   1.750E-02   0.000E+00   0.000E+00           T           F   0.000E+00   6.300E-01   0.000E+00   0.000E+00   0.000E+00   0.000E+00   0.000E+00         -           -           -  
   255          10     14.4338     -1.0000     10.0000   8.000E-01   1.750E-02   0.000E+00   0.000E+00           T           F   0.000E+00   6.300E-01   0.000E+00   0.000E+00   0.000E+00   0.000E+00   0.000E+00         -           -           -  
   256          10     14.4338      0.0000     10.0000   8.000E-01   1.750E-02   0.000E+00   0.000E+00           T           F   0.000E+00   6.300E-01   0.000E+00   0.000E+00   0.000E+00   0.000E+00   0.000E+00         -           -           -  
   257          10     14.4338      1.0000     10.0000   8.000E-01   1.750E-02   0.000E+00   0.000E+00           T           F   0.000E+00   6.300E-01   0.000E+00   0.000E+00   0.000E+00   0.000E+00   0.000E+00         -           -           -  
   258          10     14.4338      2.0000     10.0000   8.000E-01   1.750E-02   0.000E+00   0.000E+00           T           F   0.000E+00   6.300E-01   0.000E+00   0.000E+00   0.000E+00   0.000E+00   0.000E+00         -           -           -  
   259          10     14.4338      3.0000     10.0000   8.000E-01   1.750E-02   0.000E+00   0.000E+00           T           F   0.000E+00   6.300E-01   0.000E+00   0.000E+00   0.000E+00   0.000E+00   0.000E+00         -           -           -  
   260          10     14.4338      4.0000     10.0000   8.000E-01   1.750E-02   0.000E+00   0.000E+00           T           F   0.000E+00   6.300E-01   0.000E+00   0.000E+00   0.000E+00   0.000E+00   0.000E+00         -           -           -  
   261          10     14.4338      5.0000     10.0000   8.000E-01   1.750E-02   0.000E+00   0.000E+00           T           F   0.000E+00   6.300E-01   0.000E+00   0.000E+00   0.000E+00   0.000E+00   0.000E+00         -           -           -  
   262          10     14.4338      6.0000     10.0000   8.000E-01   1.750E-02   0.000E+00   0.000E+00           T           F   0.000E+00   6.300E-01   0.000E+00   0.000E+00   0.000E+00   0.000E+00   0.000E+00         -           -           -  
   263          10     14.4338      7.0000     10.0000   8.000E-01   1.750E-02   0.000E+00   0.000E+00           T           F   0.000E+00   6.300E-01   0.000E+00   0.000E+00   0.000E+00   0.000E+00   0.000E+00         -           -           -  
   264          10     14.4338      8.0000     10.0000   8.000E-01   1.750E-02   0.000E+00   0.000E+00           T           F   0.000E+00   6.300E-01   0.000E+00   0.000E+00   0.000E+00   0.000E+00   0.000E+00         -           -           -  
   265          10     14.4338      9.0000     10.0000   8.000E-01   1.750E-02   0.000E+00   0.000E+00           T           F   0.000E+00   6.300E-01   0.000E+00   0.000E+00   0.000E+00   0.000E+00   0.000E+00         -           -           -  
   266          10     14.4338     10.0000     10.0000   8.000E-01   1.750E-02   0.000E+00   0.000E+00           T           F   0.000E+00   6.300E-01   0.000E+00   0.000E+00   0.000E+00   0.000E+00   0.000E+00         -           -           -  
   267          10     14.4338     11.0000     10.0000   8.000E-01   1.750E-02   0.000E+00   0.000E+00           T           F   0.000E+00   6.300E-01   0.000E+00   0.000E+00   0.000E+00   0.000E+00   0.000E+00         -           -           -  
   268          10     14.4338     12.0000     10.0000   8.000E-01   1.750E-02   0.000E+00   0.000E+00           T           F   0.000E+00   6.300E-01   0.000E+00   0.000E+00   0.000E+00   0.000E+00   0.000E+00         -           -           -  
   269          10     14.4338     13.0000     10.0000   8.000E-01   1.750E-02   0.000E+00   0.000E+00           T           F   0.000E+00   6.300E-01   0.000E+00   0.000E+00   0.000E+00   0.000E+00   0.000E+00         -           -           -  
   270          10     14.4338     14.0000     10.0000   8.000E-01   1.750E-02   0.000E+00   0.000E+00           T           F   0.000E+00   6.300E-01   0.000E+00   0.000E+00   0.000E+00   0.000E+00   0.000E+00         -           -           -  
   271          10     14.4338     15.0000     10.0000   8.000E-01   1.750E-02   0.000E+00   0.000E+00           T           F   0.000E+00   6.300E-01   0.000E+00   0.000E+00   0.000E+00   0.000E+00   0.000E+00         -           -           -  
   272          10     14.4338     16.0000     10.0000   8.000E-01   1.750E-02   0.000E+00   0.000E+00           T           F   0.000E+00   6.300E-01   0.000E+00   0.000E+00   0.000E+00   0.000E+00   0.000E+00         -           -           -  
   273          10     14.4338     17.0000     10.0000   8.000E-01   1.750E-02   0.000E+00   0.000E+00           T           F   0.000E+00   6.300E-01   0.000E+00   0.000E+00   0.000E+00   0.000E+00   0.000E+00         -           -           -  
   274          10     14.4338     18.0000     10.0000   8.000E-01   1.750E-02   0.000E+00   0.000E+00           T           F   0.000E+00   6.300E-01   0.000E+00   0.000E+00   0.000E+00   0.000E+00   0.000E+00         -           -           -  
   275          11      3.1754     18.5000    -17.0000   8.000E-01   1.750E-02   0.000E+00   0.000E+00           T           F   0.000E+00   6.300E-01   0.000E+00   0.000E+00   0.000E+00   0.000E+00   0.000E+00         -           -           -  
   276          11      2.3094     18.0000    -17.0000   8.000E-01   1.750E-02   0.000E+00   0.000E+00           T           F   0.000E+00   6.300E-01   0.000E+00   0.000E+00   0.000E+00   0.000E+00   0.000E+00         -           -           -  
   277          11      1.4434     17.5000    -17.0000   8.000E-01   1.750E-02   0.000E+00   0.000E+00           T           F   0.000E+00   6.300E-01   0.000E+00   0.000E+00   0.000E+00   0.000E+00   0.000E+00         -           -           -  
   278          11      0.5773     17.0000    -17.0000   8.000E-01   1.750E-02   0.000E+00   0.000E+00           T           F   0.000E+00   6.300E-01   0.000E+00   0.000E+00   0.000E+00   0.000E+00   0.000E+00         -           -           -  
   279          11     -0.2887     16.5000    -17.0000   8.000E-01   1.750E-02   0.000E+00   0.000E+00           T           F   0.000E+00   6.300E-01   0.000E+00   0.000E+00   0.000E+00   0.000E+00   0.000E+00         -           -           -  
   280          11     -1.1547     16.0000    -17.0000   8.000E-01   1.750E-02   0.000E+00   0.000E+00           T           F   0.000E+00   6.300E-01   0.000E+00   0.000E+00   0.000E+00   0.000E+00   0.000E+00         -           -           -  
   281          11     -2.0207     15.5000    -17.0000   8.000E-01   1.750E-02   0.000E+00   0.000E+00           T           F   0.000E+00   6.300E-01   0.000E+00   0.000E+00   0.000E+00   0.000E+00   0.000E+00         -           -           -  
   282          11     -2.8868     15.0000    -17.0000   8.000E-01   1.750E-02   0.000E+00   0.000E+00           T           F   0.000E+00   6.300E-01   0.000E+00   0.000E+00   0.000E+00   0.000E+00   0.000E+00         -           -           -  
   283          11     -3.7528     14.5000    -17.0000   8.000E-01   1.750E-02   0.000E+00   0.000E+00           T           F   0.000E+00   6.300E-01   0.000E+00   0.000E+00   0.000E+00   0.000E+00   0.000E+00         -           -           -  
   284          11     -4.6188     14.0000    -17.0000   8.000E-01   1.750E-02   0.000E+00   0.000E+00           T           F   0.000E+00   6.300E-01   0.000E+00   0.000E+00   0.000E+00   0.000E+00   0.000E+00         -           -           -  
   285          11     -5.4848     13.5000    -17.0000   8.000E-01   1.750E-02   0.000E+00   0.000E+00           T           F   0.000E+00   6.300E-01   0.000E+00   0.000E+00   0.000E+00   0.000E+00   0.000E+00         -           -           -  
   286          11     -6.3509     13.0000    -17.0000   8.000E-01   1.750E-02   0.000E+00   0.000E+00           T           F   0.000E+00   6.300E-01   0.000E+00   0.000E+00   0.000E+00   0.000E+00   0.000E+00         -           -           -  
   287          11     -7.2169     12.5000    -17.0000   8.000E-01   1.750E-02   0.000E+00   0.000E+00           T           F   0.000E+00   6.300E-01   0.000E+00   0.000E+00   0.000E+00   0.000E+00   0.000E+00         -           -           -  
   288          11     -8.0829     12.0000    -17.0000   8.000E-01   1.750E-02   0.000E+00   0.000E+00           T           F   0.000E+00   6.300E-01   0.000E+00   0.000E+00   0.000E+00   0.000E+00   0.000E+00         -           -           -  
   289          11     -8.9489     11.5000    -17.0000   8.000E-01   1.750E-02   0.000E+00   0.000E+00           T           F   0.000E+00   6.300E-01   0.000E+00   0.000E+00   0.000E+00   0.000E+00   0.000E+00         -           -           -  
   290          11     -9.8150     11.0000    -17.0000   8.000E-01   1.750E-02   0.000E+00   0.000E+00           T           F   0.000E+00   6.300E-01   0.000E+00   0.000E+00   0.000E+00   0.000E+00   0.000E+00         -           -           -  
   291          11    -10.6810     10.5000    -17.0000   8.000E-01   1.750E-02   0.000E+00   0.000E+00           T           F   0.000E+00   6.300E-01   0.000E+00   0.000E+00   0.000E+00   0.000E+00   0.000E+00         -           -           -  
   292          11    -11.5470     10.0000    -17.0000   8.000E-01   1.750E-02   0.000E+00   0.000E+00           T           F   0.000E+00   6.300E-01   0.000E+00   0.000E+00   0.000E+00   0.000E+00   0.000E+00         -           -           -  
   293          11    -12.4130      9.5000    -17.0000   8.000E-01   1.750E-02   0.000E+00   0.000E+00           T           F   0.000E+00   6.300E-01   0.000E+00   0.000E+00   0.000E+00   0.000E+00   0.000E+00         -           -           -  
   294          11    -13.2791      9.0000    -17.0000   8.000E-01   1.750E-02   0.000E+00   0.000E+00           T           F   0.000E+00   6.300E-01   0.000E+00   0.000E+00   0.000E+00   0.000E+00   0.000E+00         -           -           -  
   295          11    -14.1451      8.5000    -17.0000   8.000E-01   1.750E-02   0.000E+00   0.000E+00           T           F   0.000E+00   6.300E-01   0.000E+00   0.000E+00   0.000E+00   0.000E+00   0.000E+00         -           -           -  
   296          11    -15.0111      8.0000    -17.0000   8.000E-01   1.750E-02   0.000E+00   0.000E+00           T           F   0.000E+00   6.300E-01   0.000E+00   0.000E+00   0.000E+00   0.000E+00   0.000E+00         -           -           -  
   297          11    -15.8771      7.5000    -17.0000   8.000E-01   1.750E-02   0.000E+00   0.000E+00           T           F   0.000E+00   6.300E-01   0.000E+00   0.000E+00   0.000E+00   0.000E+00   0.000E+00         -           -           -  
   298          11    -16.7432      7.0000    -17.0000   8.000E-01   1.750E-02   0.000E+00   0.000E+00           T           F   0.000E+00   6.300E-01   0.000E+00   0.000E+00   0.000E+00   0.000E+00   0.000E+00         -           -           -  
   299          11    -17.6092      6.5000    -17.0000   8.000E-01   1.750E-02   0.000E+00   0.000E+00           T           F   0.000E+00   6.300E-01   0.000E+00   0.000E+00   0.000E+00   0.000E+00   0.000E+00         -           -           -  
   300          12    -17.6092     -6.5000    -17.0000   8.000E-01   1.750E-02   0.000E+00   0.000E+00           T           F   0.000E+00   6.300E-01   0.000E+00   0.000E+00   0.000E+00   0.000E+00   0.000E+00         -           -           -  
   301          12    -16.7432     -7.0000    -17.0000   8.000E-01   1.750E-02   0.000E+00   0.000E+00           T           F   0.000E+00   6.300E-01   0.000E+00   0.000E+00   0.000E+00   0.000E+00   0.000E+00         -           -           -  
   302          12    -15.8771     -7.5000    -17.0000   8.000E-01   1.750E-02   0.000E+00   0.000E+00           T           F   0.000E+00   6.300E-01   0.000E+00   0.000E+00   0.000E+00   0.000E+00   0.000E+00         -           -           -  
   303          12    -15.0111     -8.0000    -17.0000   8.000E-01   1.750E-02   0.000E+00   0.000E+00           T           F   0.000E+00   6.300E-01   0.000E+00   0.000E+00   0.000E+00   0.000E+00   0.000E+00         -           -           -  
   304          12    -14.1451     -8.5000    -17.0000   8.000E-01   1.750E-02   0.000E+00   0.000E+00           T           F   0.000E+00   6.300E-01   0.000E+00   0.000E+00   0.000E+00   0.000E+00   0.000E+00         -           -           -  
   305          12    -13.2791     -9.0000    -17.0000   8.000E-01   1.750E-02   0.000E+00   0.000E+00           T           F   0.000E+00   6.300E-01   0.000E+00   0.000E+00   0.000E+00   0.000E+00   0.000E+00         -           -           -  
   306          12    -12.4130     -9.5000    -17.0000   8.000E-01   1.750E-02   0.000E+00   0.000E+00           T           F   0.000E+00   6.300E-01   0.000E+00   0.000E+00   0.000E+00   0.000E+00   0.000E+00         -           -           -  
   307          12    -11.5470    -10.0000    -17.0000   8.000E-01   1.750E-02   0.000E+00   0.000E+00           T           F   0.000E+00   6.300E-01   0.000E+00   0.000E+00   0.000E+00   0.000E+00   0.000E+00         -           -           -  
   308          12    -10.6810    -10.5000    -17.0000   8.000E-01   1.750E-02   0.000E+00   0.000E+00           T           F   0.000E+00   6.300E-01   0.000E+00   0.000E+00   0.000E+00   0.000E+00   0.000E+00         -           -           -  
   309          12     -9.8149    -11.0000    -17.0000   8.000E-01   1.750E-02   0.000E+00   0.000E+00           T           F   0.000E+00   6.300E-01   0.000E+00   0.000E+00   0.000E+00   0.000E+00   0.000E+00         -           -           -  
[...]
   514          22      3.1112     -5.3891    -12.3621   8.000E-01   1.750E-02   0.000E+00   0.000E+00           T           F   0.000E+00   6.300E-01   0.000E+00   0.000E+00   0.000E+00   0.000E+00   0.000E+00         -           -           -  
   515          22      3.4084     -5.9039    -11.5945   8.000E-01   1.750E-02   0.000E+00   0.000E+00           T           F   0.000E+00   6.300E-01   0.000E+00   0.000E+00   0.000E+00   0.000E+00   0.000E+00         -           -           -  
   516          22      3.7056     -6.4187    -10.8270   8.000E-01   1.750E-02   0.000E+00   0.000E+00           T           F   0.000E+00   6.300E-01   0.000E+00   0.000E+00   0.000E+00   0.000E+00   0.000E+00         -           -           -  
   517          22      4.0029     -6.9335    -10.0594   8.000E-01   1.750E-02   0.000E+00   0.000E+00           T           F   0.000E+00   6.300E-01   0.000E+00   0.000E+00   0.000E+00   0.000E+00   0.000E+00         -           -           -  
   518          22      4.3001     -7.4483     -9.2918   8.000E-01   1.750E-02   0.000E+00   0.000E+00           T           F   0.000E+00   6.300E-01   0.000E+00   0.000E+00   0.000E+00   0.000E+00   0.000E+00         -           -           -  
   519          22      4.5974     -7.9631     -8.5242   8.000E-01   1.750E-02   0.000E+00   0.000E+00           T           F   0.000E+00   6.300E-01   0.000E+00   0.000E+00   0.000E+00   0.000E+00   0.000E+00         -           -           -  
   520          22      4.8946     -8.4780     -7.7567   8.000E-01   1.750E-02   0.000E+00   0.000E+00           T           F   0.000E+00   6.300E-01   0.000E+00   0.000E+00   0.000E+00   0.000E+00   0.000E+00         -           -           -  
   521          22      5.1918     -8.9928     -6.9891   8.000E-01   1.750E-02   0.000E+00   0.000E+00           T           F   0.000E+00   6.300E-01   0.000E+00   0.000E+00   0.000E+00   0.000E+00   0.000E+00         -           -           -  
   522          22      5.4891     -9.5076     -6.2215   8.000E-01   1.750E-02   0.000E+00   0.000E+00           T           F   0.000E+00   6.300E-01   0.000E+00   0.000E+00   0.000E+00   0.000E+00   0.000E+00         -           -           -  
   523          22      5.7863    -10.0224     -5.4539   8.000E-01   1.750E-02   0.000E+00   0.000E+00           T           F   0.000E+00   6.300E-01   0.000E+00   0.000E+00   0.000E+00   0.000E+00   0.000E+00         -           -           -  
   524          22      6.0835    -10.5372     -4.6864   8.000E-01   1.750E-02   0.000E+00   0.000E+00           T           F   0.000E+00   6.300E-01   0.000E+00   0.000E+00   0.000E+00   0.000E+00   0.000E+00         -           -           -  
   525          22      6.3808    -11.0520     -3.9188   8.000E-01   1.750E-02   0.000E+00   0.000E+00           T           F   0.000E+00   6.300E-01   0.000E+00   0.000E+00   0.000E+00   0.000E+00   0.000E+00         -           -           -  
   526          22      6.6780    -11.5668     -3.1512   8.000E-01   1.750E-02   0.000E+00   0.000E+00           T           F   0.000E+00   6.300E-01   0.000E+00   0.000E+00   0.000E+00   0.000E+00   0.000E+00         -           -           -  
   527          22      6.9752    -12.0816     -2.3836   8.000E-01   1.750E-02   0.000E+00   0.000E+00           T           F   0.000E+00   6.300E-01   0.000E+00   0.000E+00   0.000E+00   0.000E+00   0.000E+00         -           -           -  
   528          22      7.2725    -12.5965     -1.6161   8.000E-01   1.750E-02   0.000E+00   0.000E+00           T           F   0.000E+00   6.300E-01   0.000E+00   0.000E+00   0.000E+00   0.000E+00   0.000E+00         -           -           -  
   529          22      7.5697    -13.1113     -0.8485   8.000E-01   1.750E-02   0.000E+00   0.000E+00           T           F   0.000E+00   6.300E-01   0.000E+00   0.000E+00   0.000E+00   0.000E+00   0.000E+00         -           -           -  
   530          22      7.8669    -13.6261     -0.0809   8.000E-01   1.750E-02   0.000E+00   0.000E+00           T           F   0.000E+00   6.300E-01   0.000E+00   0.000E+00   0.000E+00   0.000E+00   0.000E+00         -           -           -  
   531          22      8.1642    -14.1409      0.6867   8.000E-01   1.750E-02   0.000E+00   0.000E+00           T           F   0.000E+00   6.300E-01   0.000E+00   0.000E+00   0.000E+00   0.000E+00   0.000E+00         -           -           -  
   532          22      8.4614    -14.6557      1.4542   8.000E-01   1.750E-02   0.000E+00   0.000E+00           T           F   0.000E+00   6.300E-01   0.000E+00   0.000E+00   0.000E+00   0.000E+00   0.000E+00         -           -           -  
   533          22      8.7586    -15.1705      2.2218   8.000E-01   1.750E-02   0.000E+00   0.000E+00           T           F   0.000E+00   6.300E-01   0.000E+00   0.000E+00   0.000E+00   0.000E+00   0.000E+00         -           -           -  
   534          22      9.0559    -15.6853      2.9894   8.000E-01   1.750E-02   0.000E+00   0.000E+00           T           F   0.000E+00   6.300E-01   0.000E+00   0.000E+00   0.000E+00   0.000E+00   0.000E+00         -           -           -  
   535          22      9.3531    -16.2002      3.7570   8.000E-01   1.750E-02   0.000E+00   0.000E+00           T           F   0.000E+00   6.300E-01   0.000E+00   0.000E+00   0.000E+00   0.000E+00   0.000E+00         -           -           -  
   536          22      9.6503    -16.7150      4.5245   8.000E-01   1.750E-02   0.000E+00   0.000E+00           T           F   0.000E+00   6.300E-01   0.000E+00   0.000E+00   0.000E+00   0.000E+00   0.000E+00         -           -           -  
   537          22      9.9476    -17.2298      5.2921   8.000E-01   1.750E-02   0.000E+00   0.000E+00           T           F   0.000E+00   6.300E-01   0.000E+00   0.000E+00   0.000E+00   0.000E+00   0.000E+00         -           -           -  
   538          22     10.2448    -17.7446      6.0597   8.000E-01   1.750E-02   0.000E+00   0.000E+00           T           F   0.000E+00   6.300E-01   0.000E+00   0.000E+00   0.000E+00   0.000E+00   0.000E+00         -           -           -  
   539          22     10.5421    -18.2594      6.8273   8.000E-01   1.750E-02   0.000E+00   0.000E+00           T           F   0.000E+00   6.300E-01   0.000E+00   0.000E+00   0.000E+00   0.000E+00   0.000E+00         -           -           -  
   540          22     10.8393    -18.7742      7.5948   8.000E-01   1.750E-02   0.000E+00   0.000E+00           T           F   0.000E+00   6.300E-01   0.000E+00   0.000E+00   0.000E+00   0.000E+00   0.000E+00         -           -           -  
   541          22     11.1365    -19.2890      8.3624   8.000E-01   1.750E-02   0.000E+00   0.000E+00           T           F   0.000E+00   6.300E-01   0.000E+00   0.000E+00   0.000E+00   0.000E+00   0.000E+00         -           -           -  



 Members


 MemberID  joint1  joint2      Length       NElem         Volume       MGVolume          R1           t1             R2           t2          PropPot      FilledFlag   FillDensity    FillFSLoc     FillMass         Cd1            Ca1          Cp1          AxCd1         AxCa1         AxCp1        JAxCd1        JAxCa1       JAxCp1           Cd2           Ca2           Cp2          AxCd2         AxCa2         AxCp2        JAxCd2        JAxCa2        JAxCp2   
   (-)      (-)     (-)         (m)          (-)          (m^3)         (m^3)            (m)          (m)            (m)          (m)           (-)           (-)        (kg/m^3)         (-)          (kg)           (-)            (-)          (-)           (-)           (-)           (-)           (-)           (-)          (-)            (-)           (-)           (-)           (-)           (-)           (-)           (-)           (-)           (-)    
        1       1       2   3.00000E+01            30   0.00000E+00   0.00000E+00   3.25000E+00   3.00000E-02   3.25000E+00   3.00000E-02             T             F   0.00000E+00   0.00000E+00   0.00000E+00   5.60000E-01   0.00000E+00   0.00000E+00   0.00000E+00   0.00000E+00   0.00000E+00   0.00000E+00   0.00000E+00   1.00000E+00   5.60000E-01   0.00000E+00   0.00000E+00   0.00000E+00   0.00000E+00   0.00000E+00   0.00000E+00   0.00000E+00   1.00000E+00
        2       3       4   2.60000E+01            26   0.00000E+00   0.00000E+00   6.00000E+00   5.99999E-02   6.00000E+00   5.99999E-02             T             T   1.02500E+03  -6.17000E+00   8.89628E+05   6.10000E-01   0.00000E+00   0.00000E+00   0.00000E+00   0.00000E+00   0.00000E+00   0.00000E+00   0.00000E+00   1.00000E+00   6.10000E-01   0.00000E+00   0.00000E+00   0.00000E+00   0.00000E+00   0.00000E+00   0.00000E+00   0.00000E+00   1.00000E+00
        3       5       6   2.60000E+01            26   0.00000E+00   0.00000E+00   6.00000E+00   5.99999E-02   6.00000E+00   5.99999E-02             T             T   1.02500E+03  -6.17000E+00   8.89628E+05   6.10000E-01   0.00000E+00   0.00000E+00   0.00000E+00   0.00000E+00   0.00000E+00   0.00000E+00   0.00000E+00   1.00000E+00   6.10000E-01   0.00000E+00   0.00000E+00   0.00000E+00   0.00000E+00   0.00000E+00   0.00000E+00   0.00000E+00   1.00000E+00
        4       7       8   2.60000E+01            26   0.00000E+00   0.00000E+00   6.00000E+00   5.99999E-02   6.00000E+00   5.99999E-02             T             T   1.02500E+03  -6.17000E+00   8.89628E+05   6.10000E-01   0.00000E+00   0.00000E+00   0.00000E+00   0.00000E+00   0.00000E+00   0.00000E+00   0.00000E+00   1.00000E+00   6.10000E-01   0.00000E+00   0.00000E+00   0.00000E+00   0.00000E+00   0.00000E+00   0.00000E+00   0.00000E+00   1.00000E+00
        5      42       3   5.94000E+00             6   0.00000E+00   0.00000E+00   1.20000E+01   6.00004E-02   1.20000E+01   6.00004E-02             T             T   1.02500E+03  -1.48900E+01   2.31832E+06   6.80000E-01   0.00000E+00   0.00000E+00   0.00000E+00   0.00000E+00   0.00000E+00   0.00000E+00   0.00000E+00   1.00000E+00   6.80000E-01   0.00000E+00   0.00000E+00   0.00000E+00   0.00000E+00   0.00000E+00   0.00000E+00   0.00000E+00   1.00000E+00
        6      43       5   5.94000E+00             6   0.00000E+00   0.00000E+00   1.20000E+01   6.00004E-02   1.20000E+01   6.00004E-02             T             T   1.02500E+03  -1.48900E+01   2.31832E+06   6.80000E-01   0.00000E+00   0.00000E+00   0.00000E+00   0.00000E+00   0.00000E+00   0.00000E+00   0.00000E+00   1.00000E+00   6.80000E-01   0.00000E+00   0.00000E+00   0.00000E+00   0.00000E+00   0.00000E+00   0.00000E+00   0.00000E+00   1.00000E+00
        7      44       7   5.94000E+00             6   0.00000E+00   0.00000E+00   1.20000E+01   6.00004E-02   1.20000E+01   6.00004E-02             T             T   1.02500E+03  -1.48900E+01   2.31832E+06   6.80000E-01   0.00000E+00   0.00000E+00   0.00000E+00   0.00000E+00   0.00000E+00   0.00000E+00   0.00000E+00   1.00000E+00   6.80000E-01   0.00000E+00   0.00000E+00   0.00000E+00   0.00000E+00   0.00000E+00   0.00000E+00   0.00000E+00   1.00000E+00
       23       9      42   5.99995E-02             1   0.00000E+00   0.00000E+00   1.20000E+01   6.00004E-02   1.20000E+01   6.00004E-02             T             F   0.00000E+00   0.00000E+00   0.00000E+00   6.80000E-01   0.00000E+00   0.00000E+00   0.00000E+00   0.00000E+00   0.00000E+00   9.60000E+00   0.00000E+00   1.00000E+00   6.80000E-01   0.00000E+00   0.00000E+00   0.00000E+00   0.00000E+00   0.00000E+00   0.00000E+00   0.00000E+00   1.00000E+00
       24      10      43   5.99995E-02             1   0.00000E+00   0.00000E+00   1.20000E+01   6.00004E-02   1.20000E+01   6.00004E-02             T             F   0.00000E+00   0.00000E+00   0.00000E+00   6.80000E-01   0.00000E+00   0.00000E+00   0.00000E+00   0.00000E+00   0.00000E+00   9.60000E+00   0.00000E+00   1.00000E+00   6.80000E-01   0.00000E+00   0.00000E+00   0.00000E+00   0.00000E+00   0.00000E+00   0.00000E+00   0.00000E+00   1.00000E+00
       25      11      44   5.99995E-02             1   0.00000E+00   0.00000E+00   1.20000E+01   6.00004E-02   1.20000E+01   6.00004E-02             T             F   0.00000E+00   0.00000E+00   0.00000E+00   6.80000E-01   0.00000E+00   0.00000E+00   0.00000E+00   0.00000E+00   0.00000E+00   9.60000E+00   0.00000E+00   1.00000E+00   6.80000E-01   0.00000E+00   0.00000E+00   0.00000E+00   0.00000E+00   0.00000E+00   0.00000E+00   0.00000E+00   1.00000E+00
        8      13      12   3.79999E+01            38   0.00000E+00   0.00000E+00   8.00000E-01   1.75000E-02   8.00000E-01   1.75000E-02             T             F   0.00000E+00   0.00000E+00   0.00000E+00   6.30000E-01   0.00000E+00   0.00000E+00   0.00000E+00   0.00000E+00   0.00000E+00   0.00000E+00   0.00000E+00   1.00000E+00   6.30000E-01   0.00000E+00   0.00000E+00   0.00000E+00   0.00000E+00   0.00000E+00   0.00000E+00   0.00000E+00   1.00000E+00
        9      14      15   3.79999E+01            38   0.00000E+00   0.00000E+00   8.00000E-01   1.75000E-02   8.00000E-01   1.75000E-02             T             F   0.00000E+00   0.00000E+00   0.00000E+00   6.30000E-01   0.00000E+00   0.00000E+00   0.00000E+00   0.00000E+00   0.00000E+00   0.00000E+00   0.00000E+00   1.00000E+00   6.30000E-01   0.00000E+00   0.00000E+00   0.00000E+00   0.00000E+00   0.00000E+00   0.00000E+00   0.00000E+00   1.00000E+00
       10      16      17   3.80000E+01            38   0.00000E+00   0.00000E+00   8.00000E-01   1.75000E-02   8.00000E-01   1.75000E-02             T             F   0.00000E+00   0.00000E+00   0.00000E+00   6.30000E-01   0.00000E+00   0.00000E+00   0.00000E+00   0.00000E+00   0.00000E+00   0.00000E+00   0.00000E+00   1.00000E+00   6.30000E-01   0.00000E+00   0.00000E+00   0.00000E+00   0.00000E+00   0.00000E+00   0.00000E+00   0.00000E+00   1.00000E+00
       11      19      18   2.60000E+01            26   0.00000E+00   0.00000E+00   8.00000E-01   1.75000E-02   8.00000E-01   1.75000E-02             T             F   0.00000E+00   0.00000E+00   0.00000E+00   6.30000E-01   0.00000E+00   0.00000E+00   0.00000E+00   0.00000E+00   0.00000E+00   0.00000E+00   0.00000E+00   1.00000E+00   6.30000E-01   0.00000E+00   0.00000E+00   0.00000E+00   0.00000E+00   0.00000E+00   0.00000E+00   0.00000E+00   1.00000E+00
       12      20      21   2.60000E+01            26   0.00000E+00   0.00000E+00   8.00000E-01   1.75000E-02   8.00000E-01   1.75000E-02             T             F   0.00000E+00   0.00000E+00   0.00000E+00   6.30000E-01   0.00000E+00   0.00000E+00   0.00000E+00   0.00000E+00   0.00000E+00   0.00000E+00   0.00000E+00   1.00000E+00   6.30000E-01   0.00000E+00   0.00000E+00   0.00000E+00   0.00000E+00   0.00000E+00   0.00000E+00   0.00000E+00   1.00000E+00
       13      22      23   2.60000E+01            26   0.00000E+00   0.00000E+00   8.00000E-01   1.75000E-02   8.00000E-01   1.75000E-02             T             F   0.00000E+00   0.00000E+00   0.00000E+00   6.30000E-01   0.00000E+00   0.00000E+00   0.00000E+00   0.00000E+00   0.00000E+00   0.00000E+00   0.00000E+00   1.00000E+00   6.30000E-01   0.00000E+00   0.00000E+00   0.00000E+00   0.00000E+00   0.00000E+00   0.00000E+00   0.00000E+00   1.00000E+00
       14      24      25   1.96172E+01            20   0.00000E+00   0.00000E+00   8.00000E-01   1.75000E-02   8.00000E-01   1.75000E-02             T             F   0.00000E+00   0.00000E+00   0.00000E+00   6.30000E-01   0.00000E+00   0.00000E+00   0.00000E+00   0.00000E+00   0.00000E+00   0.00000E+00   0.00000E+00   1.00000E+00   6.30000E-01   0.00000E+00   0.00000E+00   0.00000E+00   0.00000E+00   0.00000E+00   0.00000E+00   0.00000E+00   1.00000E+00
       15      27      26   1.96200E+01            20   0.00000E+00   0.00000E+00   8.00000E-01   1.75000E-02   8.00000E-01   1.75000E-02             T             F   0.00000E+00   0.00000E+00   0.00000E+00   6.30000E-01   0.00000E+00   0.00000E+00   0.00000E+00   0.00000E+00   0.00000E+00   0.00000E+00   0.00000E+00   1.00000E+00   6.30000E-01   0.00000E+00   0.00000E+00   0.00000E+00   0.00000E+00   0.00000E+00   0.00000E+00   0.00000E+00   1.00000E+00
       16      28      29   1.96172E+01            20   0.00000E+00   0.00000E+00   8.00000E-01   1.75000E-02   8.00000E-01   1.75000E-02             T             F   0.00000E+00   0.00000E+00   0.00000E+00   6.30000E-01   0.00000E+00   0.00000E+00   0.00000E+00   0.00000E+00   0.00000E+00   0.00000E+00   0.00000E+00   1.00000E+00   6.30000E-01   0.00000E+00   0.00000E+00   0.00000E+00   0.00000E+00   0.00000E+00   0.00000E+00   0.00000E+00   1.00000E+00
       17      30      31   1.36172E+01            14   0.00000E+00   0.00000E+00   8.00000E-01   1.75000E-02   8.00000E-01   1.75000E-02             T             F   0.00000E+00   0.00000E+00   0.00000E+00   6.30000E-01   0.00000E+00   0.00000E+00   0.00000E+00   0.00000E+00   0.00000E+00   0.00000E+00   0.00000E+00   1.00000E+00   6.30000E-01   0.00000E+00   0.00000E+00   0.00000E+00   0.00000E+00   0.00000E+00   0.00000E+00   0.00000E+00   1.00000E+00
       18      33      32   1.36200E+01            14   0.00000E+00   0.00000E+00   8.00000E-01   1.75000E-02   8.00000E-01   1.75000E-02             T             F   0.00000E+00   0.00000E+00   0.00000E+00   6.30000E-01   0.00000E+00   0.00000E+00   0.00000E+00   0.00000E+00   0.00000E+00   0.00000E+00   0.00000E+00   1.00000E+00   6.30000E-01   0.00000E+00   0.00000E+00   0.00000E+00   0.00000E+00   0.00000E+00   0.00000E+00   0.00000E+00   1.00000E+00
       19      34      35   1.36172E+01            14   0.00000E+00   0.00000E+00   8.00000E-01   1.75000E-02   8.00000E-01   1.75000E-02             T             F   0.00000E+00   0.00000E+00   0.00000E+00   6.30000E-01   0.00000E+00   0.00000E+00   0.00000E+00   0.00000E+00   0.00000E+00   0.00000E+00   0.00000E+00   1.00000E+00   6.30000E-01   0.00000E+00   0.00000E+00   0.00000E+00   0.00000E+00   0.00000E+00   0.00000E+00   0.00000E+00   1.00000E+00
       20      36      37   3.20381E+01            33   0.00000E+00   0.00000E+00   8.00000E-01   1.75000E-02   8.00000E-01   1.75000E-02             T             F   0.00000E+00   0.00000E+00   0.00000E+00   6.30000E-01   0.00000E+00   0.00000E+00   0.00000E+00   0.00000E+00   0.00000E+00   0.00000E+00   0.00000E+00   1.00000E+00   6.30000E-01   0.00000E+00   0.00000E+00   0.00000E+00   0.00000E+00   0.00000E+00   0.00000E+00   0.00000E+00   1.00000E+00
       21      38      39   3.20399E+01            33   0.00000E+00   0.00000E+00   8.00000E-01   1.75000E-02   8.00000E-01   1.75000E-02             T             F   0.00000E+00   0.00000E+00   0.00000E+00   6.30000E-01   0.00000E+00   0.00000E+00   0.00000E+00   0.00000E+00   0.00000E+00   0.00000E+00   0.00000E+00   1.00000E+00   6.30000E-01   0.00000E+00   0.00000E+00   0.00000E+00   0.00000E+00   0.00000E+00   0.00000E+00   0.00000E+00   1.00000E+00
       22      40      41   3.20381E+01            33   0.00000E+00   0.00000E+00   8.00000E-01   1.75000E-02   8.00000E-01   1.75000E-02             T             F   0.00000E+00   0.00000E+00   0.00000E+00   6.30000E-01   0.00000E+00   0.00000E+00   0.00000E+00   0.00000E+00   0.00000E+00   0.00000E+00   0.00000E+00   1.00000E+00   6.30000E-01   0.00000E+00   0.00000E+00   0.00000E+00   0.00000E+00   0.00000E+00   0.00000E+00   0.00000E+00   1.00000E+00



Requested Member Outputs


   Label         Xi          Yi          Zi       MemberID    StartXi     StartYi     StartZi      EndXi       EndYi       EndZi        Loc    
    (-)          (m)         (m)         (m)        (-)         (m)         (m)         (m)         (m)         (m)         (m)         (-)    



 Requested Joint Outputs


   Label         Xi          Yi          Zi      InpJointID
    (-)          (m)         (m)         (m)        (-)    

This summary file was closed on 13-Apr-2023 at 21:21:53.

