
This summary file was generated by TurbSim (v2.00.07a-bjj, 14-Jun-2016) on 22-Apr-2023 at 14:25:34.


Runtime Options:

     13430  Random seed #1
    RANLUX  Type of random number generator
         F  Output binary HH turbulence parameters?
         F  Output formatted turbulence parameters?
         F  Output AeroDyn HH files?
         T  Output AeroDyn FF files?
         F  Output BLADED FF files?
         T  Output tower data?
         F  Output formatted FF files?
         F  Output coherent turbulence time step file?
         F  Clockwise rotation when looking downwind?
 0 -  NONE  IEC turbulence models scaled to exact specified standard deviation


Turbine/Model Specifications:

        31  Vertical grid-point matrix dimension
        31  Horizontal grid-point matrix dimension
     0.050  Time step [seconds]
  1630.000  Analysis time [seconds]
  1200.000  Usable output time [seconds]
    90.000  Hub height [m]
   145.000  Grid height [m]
   145.000  Grid width [m]
     0.000  Vertical flow angle [degrees]
     0.000  Horizontal flow angle [degrees]


Meteorological Boundary Conditions:

    IECKAI  IEC Kaimal spectral model
         1  IEC standard: IEC 61400-1 Ed. 3: 2005
         B  IEC turbulence characteristic
      2ETM  IEC Extreme Turbulence Model
     2.000  IEC Extreme Turbulence Model (ETM) "c" parameter [m/s]
       PL   Wind profile type
    90.000  Reference height [m]
    25.000  Reference wind speed [m/s]
       N/A  Jet height [m]
     0.200  Power law exponent
     0.030  Surface roughness length [m]


Non-IEC Meteorological Boundary Conditions:

       N/A  Site latitude [degrees]
       N/A  Gradient Richardson number
       N/A  Friction or shear velocity [m/s]
       N/A  Mixing layer depth [m]
       N/A  Mean hub u'w' Reynolds stress
       N/A  Mean hub u'v' Reynolds stress
       N/A  Mean hub v'w' Reynolds stress


Spatial Coherence Models:

       IEC  u-component coherence model
      NONE  v-component coherence model
      NONE  w-component coherence model
(   12.000, 0.353E-03)  u-component coherence parameters
                   N/A  v-component coherence parameters
                   N/A  w-component coherence parameters
       N/A  Coherence exponent


You have requested that the following file(s) be generated:

   90m_12mps_twr.bts (AeroDyn/TurbSim full-field wind file)


Turbulence Simulation Scaling Parameter Summary:

   Turbulence model used                            =  IEC Kaimal
   Turbulence characteristic                        =  2B
   IEC turbulence type                              =  Extreme Turbulence Model
   Reference wind speed average over 10 minutes     =   42.500 m/s
   Annual wind speed average at hub height          =    8.500 m/s
   IEC standard                                     =  IEC 61400-1 Ed. 3: 2005
   Mean wind speed at hub height                    =   25.000 m/s
   Expected value of turbulence intensity at 15 m/s =   14.000%
   Characteristic value of standard deviation       =    4.042 m/s
   Turbulence scale                                 =   42.000 m
   u-component integral scale                       =  340.200 m
   Coherency scale                                  =  340.200 m
   Characteristic value of hub turbulence intensity =   16.169%
   Gradient Richardson number                       =    0.000

   Wind profile type                                =  Power law
   Power law exponent                               =    0.200
   Mean shear across rotor disk                     =    0.070 (m/s)/m
   Assumed rotor diameter                           =  145.000 m
   Surface roughness length                         =    0.030 m

   Nyquist frequency of turbulent wind field        =   10.000 Hz

   Number of time steps in the FFT                  =    32604
   Number of time steps output                      =    24116
   Number of points simulated                       =      964


Mean Flow Angles:

   Vertical   =   0.0 degrees
   Horizontal =   0.0 degrees

Mean Wind Speed Profile:

   Height    Wind Speed   Horizontal Angle  Vertical Angle  U-comp (X)   V-comp (Y)   W-comp (Z)
     (m)        (m/s)         (degrees)       (degrees)       (m/s)        (m/s)        (m/s)   
   ------    ----------   ----------------  --------------  ----------   ----------   ----------
    162.5       28.14            0.00            0.00         28.14         0.00         0.00
    157.7       27.97            0.00            0.00         27.97         0.00         0.00
    152.8       27.79            0.00            0.00         27.79         0.00         0.00
    148.0       27.61            0.00            0.00         27.61         0.00         0.00
    143.2       27.43            0.00            0.00         27.43         0.00         0.00
    138.3       27.24            0.00            0.00         27.24         0.00         0.00
    133.5       27.05            0.00            0.00         27.05         0.00         0.00
    128.7       26.85            0.00            0.00         26.85         0.00         0.00
    123.8       26.65            0.00            0.00         26.65         0.00         0.00
    119.0       26.44            0.00            0.00         26.44         0.00         0.00
    114.2       26.22            0.00            0.00         26.22         0.00         0.00
    109.3       25.99            0.00            0.00         25.99         0.00         0.00
    104.5       25.76            0.00            0.00         25.76         0.00         0.00
     99.7       25.52            0.00            0.00         25.52         0.00         0.00
     94.8       25.26            0.00            0.00         25.26         0.00         0.00
     90.0       25.00            0.00            0.00         25.00         0.00         0.00
     85.2       24.73            0.00            0.00         24.73         0.00         0.00
     80.3       24.44            0.00            0.00         24.44         0.00         0.00
     75.5       24.14            0.00            0.00         24.14         0.00         0.00
     70.7       23.82            0.00            0.00         23.82         0.00         0.00
     65.8       23.48            0.00            0.00         23.48         0.00         0.00
     61.0       23.13            0.00            0.00         23.13         0.00         0.00
     56.2       22.75            0.00            0.00         22.75         0.00         0.00
     51.3       22.34            0.00            0.00         22.34         0.00         0.00
     46.5       21.91            0.00            0.00         21.91         0.00         0.00
     41.7       21.43            0.00            0.00         21.43         0.00         0.00
     36.8       20.91            0.00            0.00         20.91         0.00         0.00
     32.0       20.33            0.00            0.00         20.33         0.00         0.00
     27.2       19.67            0.00            0.00         19.67         0.00         0.00
     22.3       18.92            0.00            0.00         18.92         0.00         0.00
     17.5       18.02            0.00            0.00         18.02         0.00         0.00
     12.7       16.89            0.00            0.00         16.89         0.00         0.00
      7.8       15.34            0.00            0.00         15.34         0.00         0.00
      3.0       12.66            0.00            0.00         12.66         0.00         0.00


Harvested Random Seeds after Generation of the Random Numbers:

    438059193 K 1
            0 K 2


Hub-Height Simulated Turbulence Statistical Summary:

   Type of Wind        Min (m/s)   Mean (m/s)    Max (m/s)  Sigma (m/s)       TI (%)
   ----------------    ---------   ----------    ---------  -----------       ------
   Longitudinal (u)        13.00        25.00        38.33        3.780       15.122
   Lateral (v)            -15.15        -0.00        14.56        3.186       12.745
   Vertical (w)            -8.60         0.00         7.48        1.958        7.831
   U component             13.00        25.00        38.33        3.780       15.122
   V component            -15.15        -0.00        14.56        3.186       12.745
   W component             -8.60         0.00         7.48        1.958        7.831
   Horizontal (U&V)        13.24        25.21        38.37        3.750       14.876
   Total                   13.36        25.28        38.37        3.739       14.787

                       Min Reynolds     Mean Reynolds    Max Reynolds    Correlation
   Product             Stress (m/s)^2   Stress (m/s)^2   Stress (m/s)^2  Coefficient
   ----------------    --------------   --------------   --------------  -----------
   u'w'                    -58.577             0.005            50.954         0.001
   u'v'                    -62.557            -0.419            99.112        -0.035
   v'w'                   -108.316            -0.414            51.430        -0.066


   Friction Velocity (Ustar)  =      0.069 m/s
   Maximum Instantaneous TKE  =    129.064 (m/s)^2
   Maximum Instantaneous CTKE =     54.238 (m/s)^2


Grid Point Variance Summary:

   Y-coord  -72.50  -67.67  -62.83  -58.00  -53.17  -48.33  -43.50  -38.67  -33.83  -29.00  -24.17  -19.33  -14.50   -9.67   -4.83    0.00    4.83    9.67   14.50   19.33   24.17   29.00   33.83   38.67   43.50   48.33   53.17   58.00   62.83   67.67   72.50

   Height   Standard deviation at grid points for the u component:
   162.50    4.042   3.997   4.076   4.066   4.065   4.069   4.011   4.020   3.983   3.915   3.870   3.863   3.896   3.873   3.891   3.952   3.958   3.914   3.857   3.937   3.847   3.880   3.890   3.919   3.923   3.910   3.888   3.888   3.950   3.979   4.021
   157.67    4.064   3.948   4.029   4.128   4.106   4.064   3.988   4.022   4.015   3.893   3.839   3.809   3.895   3.892   3.890   4.013   4.049   4.075   3.943   3.830   3.891   3.976   3.989   3.949   3.966   4.043   3.885   3.931   3.953   4.030   4.041
   152.83    4.069   4.054   4.051   4.062   4.033   4.109   4.067   4.053   4.077   4.016   3.896   3.778   3.856   3.918   3.927   3.913   4.034   4.048   3.912   3.852   4.025   3.944   3.924   3.944   3.949   3.951   3.933   3.937   4.000   4.034   4.043
   148.00    4.079   4.108   4.121   4.071   4.035   4.020   4.091   4.111   4.098   4.087   3.930   3.846   3.813   3.810   3.944   3.924   3.808   3.911   3.930   3.957   3.980   4.006   3.979   3.971   3.942   3.933   3.948   3.893   3.942   4.035   4.141
   143.17    4.118   4.092   4.054   4.018   4.061   4.136   4.139   4.088   4.128   4.039   3.884   3.860   3.949   3.921   3.917   3.893   3.768   3.874   3.907   3.930   3.943   3.904   3.864   3.922   3.936   3.957   3.942   3.879   3.933   4.066   4.114
   138.33    4.035   4.020   4.011   4.016   4.015   3.994   4.037   3.969   4.030   3.958   3.860   3.849   3.758   3.780   3.809   3.841   3.843   3.847   3.891   3.977   3.873   3.805   3.790   3.909   3.890   3.860   3.930   3.942   3.881   3.908   4.013
   133.50    3.983   3.982   3.990   3.926   3.932   4.011   4.014   4.014   3.994   3.964   3.800   3.753   3.780   3.809   3.906   3.815   3.869   3.864   3.828   3.793   3.742   3.795   3.736   3.794   3.842   3.918   3.935   3.877   3.822   3.894   3.971
   128.67    4.013   3.987   3.982   4.000   4.081   4.041   4.016   4.002   4.031   3.917   3.826   3.837   3.736   3.841   3.877   3.821   3.835   3.853   3.821   3.772   3.756   3.803   3.800   3.783   3.851   3.914   3.922   3.887   3.770   3.835   3.919
   123.83    4.024   3.978   4.014   4.014   4.053   4.026   3.957   3.917   3.949   3.874   3.775   3.746   3.739   3.767   3.863   3.819   3.789   3.811   3.724   3.759   3.811   3.865   3.874   3.840   3.824   3.938   3.978   3.953   3.865   3.919   3.983
   119.00    3.906   3.980   3.996   4.024   3.980   4.015   3.948   3.880   3.844   3.838   3.851   3.815   3.785   3.778   3.737   3.762   3.741   3.819   3.842   3.748   3.859   3.879   3.838   3.869   3.912   3.895   3.954   3.970   4.037   3.978   3.980
   114.17    3.849   3.891   3.981   3.927   3.943   3.949   3.947   3.934   3.829   3.873   3.839   3.836   3.802   3.752   3.659   3.760   3.826   3.906   3.851   3.865   3.879   3.898   3.967   3.994   3.983   3.928   4.006   3.996   4.039   4.066   4.088
   109.33    3.750   3.895   3.934   3.960   4.011   3.883   3.815   3.884   3.969   3.875   3.818   3.846   3.829   3.742   3.648   3.755   3.790   3.971   3.984   3.909   4.072   3.983   3.888   4.060   4.161   4.080   4.049   4.040   4.086   4.078   4.128
   104.50    3.689   3.818   3.865   3.963   3.987   3.937   3.922   3.874   3.969   3.930   3.893   3.790   3.808   3.836   3.798   3.809   3.813   3.963   3.996   3.996   4.022   4.154   4.001   3.990   4.096   4.094   4.164   4.138   4.082   4.075   4.038
    99.67    3.801   3.831   3.805   3.913   3.974   4.005   3.898   3.965   3.892   3.878   3.924   3.805   3.811   3.797   3.836   3.850   3.876   3.915   3.961   3.929   4.065   4.190   4.074   4.045   4.153   4.019   4.116   4.214   4.191   4.166   4.102
    94.83    3.933   3.851   3.842   3.867   3.956   3.938   3.852   3.873   3.846   3.847   3.884   3.864   3.832   3.751   3.789   3.830   3.833   3.878   3.911   3.932   3.940   4.050   4.100   4.168   4.228   4.195   4.203   4.347   4.300   4.201   4.070
    90.00    3.963   3.906   3.844   3.849   3.859   3.888   3.732   3.730   3.756   3.778   3.804   3.821   3.850   3.819   3.799   3.780   3.763   3.772   3.928   3.885   3.986   4.027   4.106   4.142   4.150   4.238   4.305   4.356   4.295   4.180   4.056
    85.17    3.944   3.863   3.796   3.835   3.860   3.804   3.733   3.755   3.827   3.829   3.874   3.856   3.839   3.753   3.817   3.793   3.786   3.785   3.912   3.917   4.060   4.054   4.073   4.031   4.118   4.178   4.310   4.281   4.301   4.230   4.152
    80.33    3.886   3.802   3.779   3.886   3.807   3.779   3.766   3.770   3.783   3.817   3.866   3.800   3.810   3.819   3.844   3.848   3.731   3.764   3.859   3.897   3.895   3.953   3.989   4.031   4.092   4.213   4.200   4.291   4.273   4.180   4.188
    75.50    3.900   3.816   3.841   3.797   3.828   3.812   3.759   3.704   3.762   3.828   3.874   3.800   3.883   3.830   3.763   3.902   3.758   3.710   3.810   3.880   3.883   3.900   4.022   4.040   4.075   4.193   4.184   4.191   4.142   4.183   4.180
    70.67    4.050   3.940   3.915   3.853   3.876   3.943   3.865   3.799   3.766   3.831   3.891   3.896   3.810   3.870   3.798   3.871   3.797   3.767   3.879   3.886   3.824   3.950   4.063   4.084   4.002   4.050   4.120   4.148   4.180   4.225   4.230
    65.83    4.017   4.080   3.996   3.936   3.883   3.943   3.898   3.818   3.860   3.850   3.857   3.866   3.901   3.864   3.807   3.764   3.843   3.808   3.907   3.894   3.917   4.008   3.992   4.093   4.052   4.085   4.140   4.193   4.192   4.167   4.203
    61.00    4.038   4.036   4.028   4.012   3.946   3.996   3.953   3.958   3.868   3.883   3.819   3.920   3.916   3.938   3.862   3.766   3.831   3.791   3.888   3.952   3.949   3.919   3.974   3.994   4.021   4.139   4.068   4.125   4.158   4.154   4.109
    56.17    3.975   4.004   4.056   4.064   4.010   4.131   4.097   4.074   3.977   4.028   3.975   3.876   3.912   3.987   3.973   3.928   3.930   3.823   3.898   3.891   3.926   3.917   3.939   3.952   3.994   4.022   4.085   4.132   4.043   4.136   4.096
    51.33    3.969   4.035   4.079   4.061   4.072   4.042   4.144   4.167   4.127   4.018   3.918   3.884   3.876   3.946   3.903   3.959   3.852   3.878   3.933   3.927   3.951   3.970   4.000   3.981   4.058   4.056   4.113   4.118   4.050   4.082   4.069
    46.50    4.066   4.071   4.070   4.069   4.020   4.092   4.140   4.162   4.138   3.984   3.911   3.968   3.904   3.878   3.868   3.935   3.932   3.909   4.056   4.080   4.013   4.038   4.060   4.110   4.076   4.104   4.161   4.128   4.096   4.016   4.053
    41.67    3.988   3.957   4.040   4.009   3.908   4.053   4.054   4.099   4.119   3.989   3.971   3.979   3.937   3.844   3.882   3.958   3.984   3.928   3.873   3.989   4.021   3.967   4.157   4.081   4.067   4.077   4.102   4.141   4.030   4.037   4.123
    36.83    3.999   3.936   3.979   3.921   3.917   4.008   4.006   4.002   4.084   3.990   3.938   4.005   3.901   3.912   3.971   3.945   3.906   3.809   3.891   3.943   3.968   4.106   4.211   4.143   4.104   4.106   4.070   4.067   4.042   4.111   4.137
    32.00    3.988   3.897   3.973   3.899   3.935   4.001   3.989   4.078   4.083   3.966   3.908   3.969   3.952   3.966   3.914   3.888   3.876   3.864   3.843   3.885   3.996   4.106   4.277   4.280   4.281   4.143   4.097   4.078   4.128   4.079   4.003
    27.17    3.953   4.031   3.960   3.986   4.012   4.020   4.014   4.038   4.039   4.019   3.949   3.984   3.955   3.955   3.950   3.840   3.837   3.869   3.878   3.978   4.008   4.110   4.171   4.146   4.134   4.112   4.092   4.146   4.064   4.014   3.945
    22.33    3.935   4.038   4.124   4.025   3.926   3.984   3.934   3.976   4.074   4.086   3.976   4.076   4.000   3.958   3.956   3.894   3.936   3.927   3.946   3.994   4.035   4.072   4.082   4.113   4.067   4.026   4.086   4.028   4.077   3.952   3.899
    17.50    3.986   4.078   4.074   4.042   4.016   3.967   3.949   3.991   4.046   4.061   4.001   4.003   3.939   3.910   3.947   3.896   3.907   3.965   3.958   3.908   3.992   4.046   3.966   3.967   4.007   3.976   3.971   3.856   3.897   3.941   3.799

   Height   Standard deviation at grid points for the v component:
   162.50    3.186   3.186   3.186   3.186   3.186   3.186   3.186   3.186   3.186   3.186   3.186   3.186   3.186   3.186   3.186   3.186   3.186   3.186   3.186   3.186   3.186   3.186   3.186   3.186   3.186   3.186   3.186   3.186   3.186   3.186   3.186
   157.67    3.186   3.186   3.186   3.186   3.186   3.186   3.186   3.186   3.186   3.186   3.186   3.186   3.186   3.186   3.186   3.186   3.186   3.186   3.186   3.186   3.186   3.186   3.186   3.186   3.186   3.186   3.186   3.186   3.186   3.186   3.186
   152.83    3.186   3.186   3.186   3.186   3.186   3.186   3.186   3.186   3.186   3.186   3.186   3.186   3.186   3.186   3.186   3.186   3.186   3.186   3.186   3.186   3.186   3.186   3.186   3.186   3.186   3.186   3.186   3.186   3.186   3.186   3.186
   148.00    3.186   3.186   3.186   3.186   3.186   3.186   3.186   3.186   3.186   3.186   3.186   3.186   3.186   3.186   3.186   3.186   3.186   3.186   3.186   3.186   3.186   3.186   3.186   3.186   3.186   3.186   3.186   3.186   3.186   3.186   3.186
   143.17    3.186   3.186   3.186   3.186   3.186   3.186   3.186   3.186   3.186   3.186   3.186   3.186   3.186   3.186   3.186   3.186   3.186   3.186   3.186   3.186   3.186   3.186   3.186   3.186   3.186   3.186   3.186   3.186   3.186   3.186   3.186
   138.33    3.186   3.186   3.186   3.186   3.186   3.186   3.186   3.186   3.186   3.186   3.186   3.186   3.186   3.186   3.186   3.186   3.186   3.186   3.186   3.186   3.186   3.186   3.186   3.186   3.186   3.186   3.186   3.186   3.186   3.186   3.186
   133.50    3.186   3.186   3.186   3.186   3.186   3.186   3.186   3.186   3.186   3.186   3.186   3.186   3.186   3.186   3.186   3.186   3.186   3.186   3.186   3.186   3.186   3.186   3.186   3.186   3.186   3.186   3.186   3.186   3.186   3.186   3.186
   128.67    3.186   3.186   3.186   3.186   3.186   3.186   3.186   3.186   3.186   3.186   3.186   3.186   3.186   3.186   3.186   3.186   3.186   3.186   3.186   3.186   3.186   3.186   3.186   3.186   3.186   3.186   3.186   3.186   3.186   3.186   3.186
   123.83    3.186   3.186   3.186   3.186   3.186   3.186   3.186   3.186   3.186   3.186   3.186   3.186   3.186   3.186   3.186   3.186   3.186   3.186   3.186   3.186   3.186   3.186   3.186   3.186   3.186   3.186   3.186   3.186   3.186   3.186   3.186
   119.00    3.186   3.186   3.186   3.186   3.186   3.186   3.186   3.186   3.186   3.186   3.186   3.186   3.186   3.186   3.186   3.186   3.186   3.186   3.186   3.186   3.186   3.186   3.186   3.186   3.186   3.186   3.186   3.186   3.186   3.186   3.186
   114.17    3.186   3.186   3.186   3.186   3.186   3.186   3.186   3.186   3.186   3.186   3.186   3.186   3.186   3.186   3.186   3.186   3.186   3.186   3.186   3.186   3.186   3.186   3.186   3.186   3.186   3.186   3.186   3.186   3.186   3.186   3.186
   109.33    3.186   3.186   3.186   3.186   3.186   3.186   3.186   3.186   3.186   3.186   3.186   3.186   3.186   3.186   3.186   3.186   3.186   3.186   3.186   3.186   3.186   3.186   3.186   3.186   3.186   3.186   3.186   3.186   3.186   3.186   3.186
   104.50    3.186   3.186   3.186   3.186   3.186   3.186   3.186   3.186   3.186   3.186   3.186   3.186   3.186   3.186   3.186   3.186   3.186   3.186   3.186   3.186   3.186   3.186   3.186   3.186   3.186   3.186   3.186   3.186   3.186   3.186   3.186
    99.67    3.186   3.186   3.186   3.186   3.186   3.186   3.186   3.186   3.186   3.186   3.186   3.186   3.186   3.186   3.186   3.186   3.186   3.186   3.186   3.186   3.186   3.186   3.186   3.186   3.186   3.186   3.186   3.186   3.186   3.186   3.186
    94.83    3.186   3.186   3.186   3.186   3.186   3.186   3.186   3.186   3.186   3.186   3.186   3.186   3.186   3.186   3.186   3.186   3.186   3.186   3.186   3.186   3.186   3.186   3.186   3.186   3.186   3.186   3.186   3.186   3.186   3.186   3.186
    90.00    3.186   3.186   3.186   3.186   3.186   3.186   3.186   3.186   3.186   3.186   3.186   3.186   3.186   3.186   3.186   3.186   3.186   3.186   3.186   3.186   3.186   3.186   3.186   3.186   3.186   3.186   3.186   3.186   3.186   3.186   3.186
    85.17    3.186   3.186   3.186   3.186   3.186   3.186   3.186   3.186   3.186   3.186   3.186   3.186   3.186   3.186   3.186   3.186   3.186   3.186   3.186   3.186   3.186   3.186   3.186   3.186   3.186   3.186   3.186   3.186   3.186   3.186   3.186
    80.33    3.186   3.186   3.186   3.186   3.186   3.186   3.186   3.186   3.186   3.186   3.186   3.186   3.186   3.186   3.186   3.186   3.186   3.186   3.186   3.186   3.186   3.186   3.186   3.186   3.186   3.186   3.186   3.186   3.186   3.186   3.186
    75.50    3.186   3.186   3.186   3.186   3.186   3.186   3.186   3.186   3.186   3.186   3.186   3.186   3.186   3.186   3.186   3.186   3.186   3.186   3.186   3.186   3.186   3.186   3.186   3.186   3.186   3.186   3.186   3.186   3.186   3.186   3.186
    70.67    3.186   3.186   3.186   3.186   3.186   3.186   3.186   3.186   3.186   3.186   3.186   3.186   3.186   3.186   3.186   3.186   3.186   3.186   3.186   3.186   3.186   3.186   3.186   3.186   3.186   3.186   3.186   3.186   3.186   3.186   3.186
    65.83    3.186   3.186   3.186   3.186   3.186   3.186   3.186   3.186   3.186   3.186   3.186   3.186   3.186   3.186   3.186   3.186   3.186   3.186   3.186   3.186   3.186   3.186   3.186   3.186   3.186   3.186   3.186   3.186   3.186   3.186   3.186
    61.00    3.186   3.186   3.186   3.186   3.186   3.186   3.186   3.186   3.186   3.186   3.186   3.186   3.186   3.186   3.186   3.186   3.186   3.186   3.186   3.186   3.186   3.186   3.186   3.186   3.186   3.186   3.186   3.186   3.186   3.186   3.186
    56.17    3.186   3.186   3.186   3.186   3.186   3.186   3.186   3.186   3.186   3.186   3.186   3.186   3.186   3.186   3.186   3.186   3.186   3.186   3.186   3.186   3.186   3.186   3.186   3.186   3.186   3.186   3.186   3.186   3.186   3.186   3.186
    51.33    3.186   3.186   3.186   3.186   3.186   3.186   3.186   3.186   3.186   3.186   3.186   3.186   3.186   3.186   3.186   3.186   3.186   3.186   3.186   3.186   3.186   3.186   3.186   3.186   3.186   3.186   3.186   3.186   3.186   3.186   3.186
    46.50    3.186   3.186   3.186   3.186   3.186   3.186   3.186   3.186   3.186   3.186   3.186   3.186   3.186   3.186   3.186   3.186   3.186   3.186   3.186   3.186   3.186   3.186   3.186   3.186   3.186   3.186   3.186   3.186   3.186   3.186   3.186
    41.67    3.186   3.186   3.186   3.186   3.186   3.186   3.186   3.186   3.186   3.186   3.186   3.186   3.186   3.186   3.186   3.186   3.186   3.186   3.186   3.186   3.186   3.186   3.186   3.186   3.186   3.186   3.186   3.186   3.186   3.186   3.186
    36.83    3.186   3.186   3.186   3.186   3.186   3.186   3.186   3.186   3.186   3.186   3.186   3.186   3.186   3.186   3.186   3.186   3.186   3.186   3.186   3.186   3.186   3.186   3.186   3.186   3.186   3.186   3.186   3.186   3.186   3.186   3.186
    32.00    3.186   3.186   3.186   3.186   3.186   3.186   3.186   3.186   3.186   3.186   3.186   3.186   3.186   3.186   3.186   3.186   3.186   3.186   3.186   3.186   3.186   3.186   3.186   3.186   3.186   3.186   3.186   3.186   3.186   3.186   3.186
    27.17    3.186   3.186   3.186   3.186   3.186   3.186   3.186   3.186   3.186   3.186   3.186   3.186   3.186   3.186   3.186   3.186   3.186   3.186   3.186   3.186   3.186   3.186   3.186   3.186   3.186   3.186   3.186   3.186   3.186   3.186   3.186
    22.33    3.186   3.186   3.186   3.186   3.186   3.186   3.186   3.186   3.186   3.186   3.186   3.186   3.186   3.186   3.186   3.186   3.186   3.186   3.186   3.186   3.186   3.186   3.186   3.186   3.186   3.186   3.186   3.186   3.186   3.186   3.186
    17.50    3.186   3.186   3.186   3.186   3.186   3.186   3.186   3.186   3.186   3.186   3.186   3.186   3.186   3.186   3.186   3.186   3.186   3.186   3.186   3.186   3.186   3.186   3.186   3.186   3.186   3.186   3.186   3.186   3.186   3.186   3.186

   Height   Standard deviation at grid points for the w component:
   162.50    1.958   1.958   1.958   1.958   1.958   1.958   1.958   1.958   1.958   1.958   1.958   1.958   1.958   1.958   1.958   1.958   1.958   1.958   1.958   1.958   1.958   1.958   1.958   1.958   1.958   1.958   1.958   1.958   1.958   1.958   1.958
   157.67    1.958   1.958   1.958   1.958   1.958   1.958   1.958   1.958   1.958   1.958   1.958   1.958   1.958   1.958   1.958   1.958   1.958   1.958   1.958   1.958   1.958   1.958   1.958   1.958   1.958   1.958   1.958   1.958   1.958   1.958   1.958
   152.83    1.958   1.958   1.958   1.958   1.958   1.958   1.958   1.958   1.958   1.958   1.958   1.958   1.958   1.958   1.958   1.958   1.958   1.958   1.958   1.958   1.958   1.958   1.958   1.958   1.958   1.958   1.958   1.958   1.958   1.958   1.958
   148.00    1.958   1.958   1.958   1.958   1.958   1.958   1.958   1.958   1.958   1.958   1.958   1.958   1.958   1.958   1.958   1.958   1.958   1.958   1.958   1.958   1.958   1.958   1.958   1.958   1.958   1.958   1.958   1.958   1.958   1.958   1.958
   143.17    1.958   1.958   1.958   1.958   1.958   1.958   1.958   1.958   1.958   1.958   1.958   1.958   1.958   1.958   1.958   1.958   1.958   1.958   1.958   1.958   1.958   1.958   1.958   1.958   1.958   1.958   1.958   1.958   1.958   1.958   1.958
   138.33    1.958   1.958   1.958   1.958   1.958   1.958   1.958   1.958   1.958   1.958   1.958   1.958   1.958   1.958   1.958   1.958   1.958   1.958   1.958   1.958   1.958   1.958   1.958   1.958   1.958   1.958   1.958   1.958   1.958   1.958   1.958
   133.50    1.958   1.958   1.958   1.958   1.958   1.958   1.958   1.958   1.958   1.958   1.958   1.958   1.958   1.958   1.958   1.958   1.958   1.958   1.958   1.958   1.958   1.958   1.958   1.958   1.958   1.958   1.958   1.958   1.958   1.958   1.958
   128.67    1.958   1.958   1.958   1.958   1.958   1.958   1.958   1.958   1.958   1.958   1.958   1.958   1.958   1.958   1.958   1.958   1.958   1.958   1.958   1.958   1.958   1.958   1.958   1.958   1.958   1.958   1.958   1.958   1.958   1.958   1.958
   123.83    1.958   1.958   1.958   1.958   1.958   1.958   1.958   1.958   1.958   1.958   1.958   1.958   1.958   1.958   1.958   1.958   1.958   1.958   1.958   1.958   1.958   1.958   1.958   1.958   1.958   1.958   1.958   1.958   1.958   1.958   1.958
   119.00    1.958   1.958   1.958   1.958   1.958   1.958   1.958   1.958   1.958   1.958   1.958   1.958   1.958   1.958   1.958   1.958   1.958   1.958   1.958   1.958   1.958   1.958   1.958   1.958   1.958   1.958   1.958   1.958   1.958   1.958   1.958
   114.17    1.958   1.958   1.958   1.958   1.958   1.958   1.958   1.958   1.958   1.958   1.958   1.958   1.958   1.958   1.958   1.958   1.958   1.958   1.958   1.958   1.958   1.958   1.958   1.958   1.958   1.958   1.958   1.958   1.958   1.958   1.958
   109.33    1.958   1.958   1.958   1.958   1.958   1.958   1.958   1.958   1.958   1.958   1.958   1.958   1.958   1.958   1.958   1.958   1.958   1.958   1.958   1.958   1.958   1.958   1.958   1.958   1.958   1.958   1.958   1.958   1.958   1.958   1.958
   104.50    1.958   1.958   1.958   1.958   1.958   1.958   1.958   1.958   1.958   1.958   1.958   1.958   1.958   1.958   1.958   1.958   1.958   1.958   1.958   1.958   1.958   1.958   1.958   1.958   1.958   1.958   1.958   1.958   1.958   1.958   1.958
    99.67    1.958   1.958   1.958   1.958   1.958   1.958   1.958   1.958   1.958   1.958   1.958   1.958   1.958   1.958   1.958   1.958   1.958   1.958   1.958   1.958   1.958   1.958   1.958   1.958   1.958   1.958   1.958   1.958   1.958   1.958   1.958
    94.83    1.958   1.958   1.958   1.958   1.958   1.958   1.958   1.958   1.958   1.958   1.958   1.958   1.958   1.958   1.958   1.958   1.958   1.958   1.958   1.958   1.958   1.958   1.958   1.958   1.958   1.958   1.958   1.958   1.958   1.958   1.958
    90.00    1.958   1.958   1.958   1.958   1.958   1.958   1.958   1.958   1.958   1.958   1.958   1.958   1.958   1.958   1.958   1.958   1.958   1.958   1.958   1.958   1.958   1.958   1.958   1.958   1.958   1.958   1.958   1.958   1.958   1.958   1.958
    85.17    1.958   1.958   1.958   1.958   1.958   1.958   1.958   1.958   1.958   1.958   1.958   1.958   1.958   1.958   1.958   1.958   1.958   1.958   1.958   1.958   1.958   1.958   1.958   1.958   1.958   1.958   1.958   1.958   1.958   1.958   1.958
    80.33    1.958   1.958   1.958   1.958   1.958   1.958   1.958   1.958   1.958   1.958   1.958   1.958   1.958   1.958   1.958   1.958   1.958   1.958   1.958   1.958   1.958   1.958   1.958   1.958   1.958   1.958   1.958   1.958   1.958   1.958   1.958
    75.50    1.958   1.958   1.958   1.958   1.958   1.958   1.958   1.958   1.958   1.958   1.958   1.958   1.958   1.958   1.958   1.958   1.958   1.958   1.958   1.958   1.958   1.958   1.958   1.958   1.958   1.958   1.958   1.958   1.958   1.958   1.958
    70.67    1.958   1.958   1.958   1.958   1.958   1.958   1.958   1.958   1.958   1.958   1.958   1.958   1.958   1.958   1.958   1.958   1.958   1.958   1.958   1.958   1.958   1.958   1.958   1.958   1.958   1.958   1.958   1.958   1.958   1.958   1.958
    65.83    1.958   1.958   1.958   1.958   1.958   1.958   1.958   1.958   1.958   1.958   1.958   1.958   1.958   1.958   1.958   1.958   1.958   1.958   1.958   1.958   1.958   1.958   1.958   1.958   1.958   1.958   1.958   1.958   1.958   1.958   1.958
    61.00    1.958   1.958   1.958   1.958   1.958   1.958   1.958   1.958   1.958   1.958   1.958   1.958   1.958   1.958   1.958   1.958   1.958   1.958   1.958   1.958   1.958   1.958   1.958   1.958   1.958   1.958   1.958   1.958   1.958   1.958   1.958
    56.17    1.958   1.958   1.958   1.958   1.958   1.958   1.958   1.958   1.958   1.958   1.958   1.958   1.958   1.958   1.958   1.958   1.958   1.958   1.958   1.958   1.958   1.958   1.958   1.958   1.958   1.958   1.958   1.958   1.958   1.958   1.958
    51.33    1.958   1.958   1.958   1.958   1.958   1.958   1.958   1.958   1.958   1.958   1.958   1.958   1.958   1.958   1.958   1.958   1.958   1.958   1.958   1.958   1.958   1.958   1.958   1.958   1.958   1.958   1.958   1.958   1.958   1.958   1.958
    46.50    1.958   1.958   1.958   1.958   1.958   1.958   1.958   1.958   1.958   1.958   1.958   1.958   1.958   1.958   1.958   1.958   1.958   1.958   1.958   1.958   1.958   1.958   1.958   1.958   1.958   1.958   1.958   1.958   1.958   1.958   1.958
    41.67    1.958   1.958   1.958   1.958   1.958   1.958   1.958   1.958   1.958   1.958   1.958   1.958   1.958   1.958   1.958   1.958   1.958   1.958   1.958   1.958   1.958   1.958   1.958   1.958   1.958   1.958   1.958   1.958   1.958   1.958   1.958
    36.83    1.958   1.958   1.958   1.958   1.958   1.958   1.958   1.958   1.958   1.958   1.958   1.958   1.958   1.958   1.958   1.958   1.958   1.958   1.958   1.958   1.958   1.958   1.958   1.958   1.958   1.958   1.958   1.958   1.958   1.958   1.958
    32.00    1.958   1.958   1.958   1.958   1.958   1.958   1.958   1.958   1.958   1.958   1.958   1.958   1.958   1.958   1.958   1.958   1.958   1.958   1.958   1.958   1.958   1.958   1.958   1.958   1.958   1.958   1.958   1.958   1.958   1.958   1.958
    27.17    1.958   1.958   1.958   1.958   1.958   1.958   1.958   1.958   1.958   1.958   1.958   1.958   1.958   1.958   1.958   1.958   1.958   1.958   1.958   1.958   1.958   1.958   1.958   1.958   1.958   1.958   1.958   1.958   1.958   1.958   1.958
    22.33    1.958   1.958   1.958   1.958   1.958   1.958   1.958   1.958   1.958   1.958   1.958   1.958   1.958   1.958   1.958   1.958   1.958   1.958   1.958   1.958   1.958   1.958   1.958   1.958   1.958   1.958   1.958   1.958   1.958   1.958   1.958
    17.50    1.958   1.958   1.958   1.958   1.958   1.958   1.958   1.958   1.958   1.958   1.958   1.958   1.958   1.958   1.958   1.958   1.958   1.958   1.958   1.958   1.958   1.958   1.958   1.958   1.958   1.958   1.958   1.958   1.958   1.958   1.958

   Mean standard deviation across all grid points:
      u component:    3.958 m/s
      v component:    3.186 m/s
      w component:    1.958 m/s


U-component (X) statistics from the interpolated hub point:

   Mean =  25.0000 m/s
   TI   =  15.1218 %


Processing complete.  223.89 CPU seconds used.
